Network_08R-373/scenario_196/case.raw
0,100.0,33,0,1,60.0
GRID OPTIMIZATION COMPETITION
INPUT DATA FILES ARE RAW ROP INL CON
1,'A1',230.0,1,1,1,1,1.04231,40.0426,1.05,0.95,1.1,0.9
2,'A2',1.0,1,1,1,1,1.05274,46.415,1.06544,0.95,1.1,0.9
3,'A3',115.0,1,1,1,1,1.0354,47.4384,1.05,0.95,1.1,0.9
4,'A4',115.0,1,1,1,1,1.03758,47.1662,1.05,0.95,1.1,0.9
5,'A5',115.0,1,1,1,1,1.04649,30.1853,1.05,0.95,1.1,0.9
6,'A6',230.0,1,1,1,1,1.01375,24.9333,1.05,0.95,1.1,0.9
7,'A7',115.0,1,1,1,1,1.04198,48.543,1.05,0.95,1.1,0.9
8,'A8',115.0,1,1,1,1,1.04333,36.7559,1.05,0.95,1.1,0.9
9,'A9',115.0,2,1,1,1,1.0,34.1758,1.05,0.95,1.1,0.9
10,'A10',115.0,1,1,1,1,1.04117,39.3693,1.05,0.95,1.1,0.9
11,'A11',115.0,1,1,1,1,1.03519,25.8475,1.05,0.95,1.1,0.9
12,'A12',230.0,1,1,1,1,1.01399,24.4512,1.05,0.95,1.1,0.9
13,'A13',230.0,1,1,1,1,1.03729,47.1191,1.05,0.95,1.1,0.9
14,'A14',345.0,1,1,1,1,1.05274,46.415,1.06544,0.95,1.1,0.9
15,'A15',115.0,1,1,1,1,1.03753,47.1664,1.05,0.95,1.1,0.9
16,'A16',230.0,1,1,1,1,1.0043,23.6071,1.05,0.95,1.1,0.9
17,'A17',230.0,1,1,1,1,1.02467,32.0166,1.05,0.95,1.1,0.9
18,'A18',230.0,1,1,1,1,1.01827,27.2811,1.05,0.95,1.1,0.9
19,'A19',500.0,1,1,1,1,1.06573,46.3892,1.07859,0.95,1.1,0.9
20,'A20',1.0,1,1,1,1,1.05274,46.415,1.06544,0.95,1.1,0.9
21,'A21',22.8,2,1,1,1,1.03162,50.3858,1.05,0.95,1.1,0.9
22,'A22',230.0,1,1,1,1,1.04042,33.679,1.05,0.95,1.1,0.9
23,'A23',345.0,2,1,1,1,1.03076,26.4351,1.05,0.95,1.1,0.9
24,'A24',138.0,1,1,1,1,1.02969,47.4651,1.05,0.95,1.1,0.9
25,'A25',21.0,2,1,1,1,1.0,55.1154,1.05,0.95,1.1,0.9
26,'A26',230.0,1,1,1,1,1.04954,30.5961,1.05,0.95,1.1,0.9
27,'A27',115.0,2,1,1,1,1.0361,24.1947,1.05,0.95,1.1,0.9
28,'A28',115.0,1,1,1,1,1.05365,46.9363,1.06652,0.95,1.1,0.9
29,'A29',115.0,1,1,1,1,1.04116,39.3649,1.05,0.95,1.1,0.9
30,'A30',161.0,1,1,1,1,1.01848,27.0213,1.05,0.95,1.1,0.9
31,'A31',230.0,1,1,1,1,1.04256,40.2325,1.05,0.95,1.1,0.9
32,'A32',161.0,1,1,1,1,1.01655,24.7219,1.05,0.95,1.1,0.9
33,'A33',115.0,1,1,1,1,1.04331,47.8082,1.05,0.95,1.1,0.9
34,'A34',115.0,1,1,1,1,1.04213,38.6376,1.05,0.95,1.1,0.9
35,'A35',230.0,1,1,1,1,1.01391,25.3725,1.05,0.95,1.1,0.9
36,'A36',138.0,1,1,1,1,1.03189,47.4402,1.05,0.95,1.1,0.9
37,'A37',230.0,1,1,1,1,1.04316,48.3356,1.05,0.95,1.1,0.9
38,'A38',230.0,1,1,1,1,1.03721,48.7014,1.05,0.95,1.1,0.9
39,'A39',230.0,1,1,1,1,1.0567,46.3974,1.06945,0.95,1.1,0.9
40,'A40',230.0,1,1,1,1,1.02325,50.0168,1.05,0.95,1.1,0.9
41,'A41',161.0,1,1,1,1,1.03994,33.1533,1.05,0.95,1.1,0.9
42,'A42',230.0,2,1,1,1,1.0108,24.1853,1.05,0.95,1.1,0.9
43,'A43',230.0,1,1,1,1,1.04277,40.1796,1.05,0.95,1.1,0.9
44,'A44',115.0,1,1,1,1,1.04194,48.5433,1.05,0.95,1.1,0.9
45,'A45',230.0,1,1,1,1,1.04972,31.0951,1.05,0.95,1.1,0.9
46,'A46',1.0,2,1,1,1,1.0132,25.0594,1.05,0.95,1.1,0.9
47,'A47',115.0,1,1,1,1,1.04642,29.9095,1.05,0.95,1.1,0.9
48,'A48',230.0,1,1,1,1,1.04708,31.7355,1.05,0.95,1.1,0.9
49,'A49',115.0,1,1,1,1,1.02796,21.8476,1.05,0.95,1.1,0.9
50,'A50',230.0,1,1,1,1,1.03932,32.7359,1.05,0.95,1.1,0.9
51,'A51',1.0,2,1,1,1,1.0218,21.5467,1.05,0.95,1.1,0.9
52,'A52',230.0,1,1,1,1,1.01973,28.373,1.05,0.95,1.1,0.9
53,'A53',500.0,1,1,1,1,1.05274,46.415,1.06544,0.95,1.1,0.9
54,'A54',230.0,1,1,1,1,1.02518,26.1737,1.05,0.95,1.1,0.9
55,'B55',25.0,2,1,2,1,1.01836,17.0109,1.05,0.95,1.1,0.9
56,'B56',115.0,1,1,2,1,1.02342,17.0067,1.05,0.95,1.1,0.9
57,'B57',12.0,1,1,2,1,1.00974,17.1439,1.05,0.95,1.1,0.9
58,'B58',115.0,1,1,2,1,1.02324,17.0063,1.05,0.95,1.1,0.9
59,'B59',115.0,1,1,2,1,1.01969,17.1545,1.05,0.95,1.1,0.9
60,'B60',25.0,2,1,2,1,1.01934,17.0067,1.05,0.95,1.1,0.9
61,'B61',22.0,1,1,2,1,1.01997,17.0949,1.05,0.95,1.1,0.9
62,'B62',115.0,1,1,2,1,1.01982,17.1441,1.05,0.95,1.1,0.9
63,'B63',115.0,1,1,2,1,1.02532,17.0112,1.05,0.95,1.1,0.9
64,'B64',115.0,1,1,2,1,1.01984,17.1439,1.05,0.95,1.1,0.9
65,'B65',25.0,1,1,2,1,1.02324,17.0063,1.05,0.95,1.1,0.9
66,'B66',115.0,1,1,2,1,1.01966,17.0284,1.05,0.95,1.1,0.9
67,'B67',115.0,1,1,2,1,1.02244,17.0109,1.05,0.95,1.1,0.9
68,'B68',12.0,1,1,2,1,1.00974,17.1439,1.05,0.95,1.1,0.9
69,'B69',115.0,1,1,2,1,1.02014,17.0848,1.05,0.95,1.1,0.9
70,'B70',34.5,2,1,2,1,1.02692,17.0621,1.05,0.95,1.1,0.9
71,'C71',1.0,1,1,3,1,1.01154,22.3671,1.05,0.95,1.1,0.9
72,'C72',345.0,1,1,3,1,1.02979,21.9455,1.05,0.95,1.1,0.9
73,'C73',765.0,2,1,3,1,1.0,22.5023,1.05,0.95,1.1,0.9
74,'C74',138.0,1,1,3,1,1.03661,21.7831,1.05,0.95,1.1,0.9
75,'C75',345.0,3,1,3,1,1.04,35.2575,1.05,0.95,1.1,0.9
76,'C76',345.0,1,1,3,1,1.03032,27.6034,1.05,0.95,1.1,0.9
77,'C77',138.0,1,1,3,1,1.02732,24.501,1.05,0.95,1.1,0.9
78,'C78',138.0,2,1,3,1,1.0085,25.5946,1.05,0.95,1.1,0.9
79,'C79',138.0,1,1,3,1,1.02278,15.9936,1.05,0.95,1.1,0.9
80,'C80',18.0,1,1,3,1,1.03664,22.2591,1.05,0.95,1.1,0.9
81,'C81',138.0,1,1,3,1,1.0358,21.2138,1.05,0.95,1.1,0.9
82,'C82',13.8,1,1,3,1,1.04189,25.7984,1.05,0.95,1.1,0.9
83,'C83',345.0,1,1,3,1,1.03664,22.2591,1.05,0.95,1.1,0.9
84,'C84',345.0,1,1,3,1,1.01781,22.043,1.05,0.95,1.1,0.9
85,'C85',138.0,1,1,3,1,1.03246,21.5957,1.05,0.95,1.1,0.9
86,'C86',138.0,1,1,3,1,1.03086,20.6207,1.05,0.95,1.1,0.9
87,'C87',345.0,1,1,3,1,1.04121,33.3907,1.05,0.95,1.1,0.9
88,'C88',345.0,1,1,3,1,1.03825,27.9183,1.05,0.95,1.1,0.9
89,'C89',345.0,1,1,3,1,1.04247,27.0626,1.05,0.95,1.1,0.9
90,'C90',138.0,1,1,3,1,1.02976,21.2506,1.05,0.95,1.1,0.9
91,'C91',138.0,1,1,3,1,1.03134,21.1227,1.05,0.95,1.1,0.9
92,'C92',138.0,1,1,3,1,1.02135,24.7323,1.05,0.95,1.1,0.9
93,'C93',345.0,1,1,3,1,1.02899,21.4865,1.05,0.95,1.1,0.9
94,'C94',138.0,1,1,3,1,1.03281,21.0121,1.05,0.95,1.1,0.9
95,'C95',345.0,1,1,3,1,1.03161,22.1504,1.05,0.95,1.1,0.9
96,'C96',138.0,2,1,3,1,1.0133,27.0095,1.05,0.95,1.1,0.9
97,'C97',138.0,1,1,3,1,1.0252,22.0314,1.05,0.95,1.1,0.9
98,'C98',138.0,1,1,3,1,1.02461,24.6644,1.05,0.95,1.1,0.9
99,'C99',138.0,1,1,3,1,1.0151,25.9217,1.05,0.95,1.1,0.9
100,'C100',1.0,1,1,3,1,1.01166,22.3709,1.05,0.95,1.1,0.9
101,'C101',345.0,1,1,3,1,1.03866,25.8141,1.05,0.95,1.1,0.9
102,'C102',138.0,1,1,3,1,1.03279,13.0854,1.05,0.95,1.1,0.9
103,'C103',138.0,1,1,3,1,1.03702,21.6036,1.05,0.95,1.1,0.9
104,'C104',345.0,1,1,3,1,1.03848,22.3594,1.05,0.95,1.1,0.9
105,'C105',345.0,1,1,3,1,1.04189,25.7984,1.05,0.95,1.1,0.9
106,'C106',13.8,1,1,3,1,1.04189,25.7984,1.05,0.95,1.1,0.9
107,'C107',138.0,1,1,3,1,1.01915,26.032,1.05,0.95,1.1,0.9
108,'C108',345.0,1,1,3,1,1.03389,22.1548,1.05,0.95,1.1,0.9
109,'C109',345.0,1,1,3,1,1.01463,22.0048,1.05,0.95,1.1,0.9
110,'C110',138.0,1,1,3,1,1.02125,24.7584,1.05,0.95,1.1,0.9
111,'C111',138.0,1,1,3,1,1.02411,15.569,1.05,0.95,1.1,0.9
112,'C112',138.0,2,1,3,1,1.01072,21.8341,1.05,0.95,1.1,0.9
113,'C113',345.0,1,1,3,1,1.02514,20.7676,1.05,0.95,1.1,0.9
114,'C114',138.0,1,1,3,1,1.0337,22.0395,1.05,0.95,1.1,0.9
115,'C115',138.0,1,1,3,1,1.03043,20.7294,1.05,0.95,1.1,0.9
116,'C116',138.0,2,1,3,1,1.0311,11.8174,1.05,0.95,1.1,0.9
117,'C117',13.8,1,1,3,1,1.02604,20.9378,1.05,0.95,1.1,0.9
118,'C118',345.0,1,1,3,1,1.013,22.2327,1.05,0.95,1.1,0.9
119,'C119',24.0,2,1,3,1,1.04481,23.9398,1.05,0.95,1.1,0.9
120,'C120',138.0,1,1,3,1,1.01562,19.9066,1.05,0.95,1.1,0.9
121,'C121',345.0,1,1,3,1,1.01299,22.2324,1.05,0.95,1.1,0.9
122,'C122',138.0,1,1,3,1,1.02784,24.4863,1.05,0.95,1.1,0.9
123,'C123',138.0,1,1,3,1,1.02715,23.076,1.05,0.95,1.1,0.9
124,'C124',138.0,1,1,3,1,1.02279,16.0034,1.05,0.95,1.1,0.9
125,'C125',18.0,1,1,3,1,1.03664,22.2591,1.05,0.95,1.1,0.9
126,'C126',18.0,1,1,3,1,1.03664,22.2591,1.05,0.95,1.1,0.9
127,'C127',345.0,1,1,3,1,1.03055,21.6983,1.05,0.95,1.1,0.9
128,'C128',138.0,1,1,3,1,1.02055,26.0739,1.05,0.95,1.1,0.9
129,'C129',24.0,2,1,3,1,1.0239,23.96,1.05,0.95,1.1,0.9
130,'C130',138.0,1,1,3,1,1.03112,21.3548,1.05,0.95,1.1,0.9
131,'C131',138.0,1,1,3,1,1.02032,22.8447,1.05,0.95,1.1,0.9
132,'C132',138.0,1,1,3,1,1.03052,21.1084,1.05,0.95,1.1,0.9
133,'C133',138.0,1,1,3,1,1.02789,23.3646,1.05,0.95,1.1,0.9
134,'C134',138.0,1,1,3,1,1.01889,25.921,1.05,0.95,1.1,0.9
135,'C135',345.0,1,1,3,1,1.0346,23.9358,1.05,0.95,1.1,0.9
136,'C136',138.0,1,1,3,1,1.02527,24.7803,1.05,0.95,1.1,0.9
137,'C137',345.0,1,1,3,1,1.03014,22.5602,1.05,0.95,1.1,0.9
138,'C138',138.0,1,1,3,1,1.02807,15.9577,1.05,0.95,1.1,0.9
139,'C139',138.0,1,1,3,1,1.03182,20.9737,1.05,0.95,1.1,0.9
140,'C140',13.8,1,1,3,1,1.02604,20.9377,1.05,0.95,1.1,0.9
141,'C141',345.0,2,1,3,1,1.0393,22.5121,1.05,0.95,1.1,0.9
142,'C142',345.0,1,1,3,1,1.01313,22.2189,1.05,0.95,1.1,0.9
143,'C143',345.0,1,1,3,1,1.03595,29.0907,1.05,0.95,1.1,0.9
144,'C144',138.0,1,1,3,1,1.02152,24.7232,1.05,0.95,1.1,0.9
145,'C145',138.0,1,1,3,1,1.02798,22.1174,1.05,0.95,1.1,0.9
146,'C146',138.0,1,1,3,1,1.03435,23.2546,1.05,0.95,1.1,0.9
147,'C147',138.0,2,1,3,1,1.03141,20.6206,1.05,0.95,1.1,0.9
148,'C148',138.0,1,1,3,1,1.03043,20.5816,1.05,0.95,1.1,0.9
149,'C149',138.0,1,1,3,1,1.02319,24.115,1.05,0.95,1.1,0.9
150,'C150',138.0,1,1,3,1,1.03049,21.5543,1.05,0.95,1.1,0.9
151,'D151',230.0,2,1,4,1,1.01473,18.0331,1.05,0.95,1.1,0.9
152,'D152',25.0,2,1,4,1,1.01619,17.18,1.05,0.95,1.1,0.9
153,'D153',115.0,1,1,4,1,1.02231,17.5229,1.05,0.95,1.1,0.9
154,'D154',46.0,2,1,4,1,1.01,17.7085,1.05,0.95,1.1,0.9
155,'D155',115.0,1,1,4,1,1.02188,15.3914,1.05,0.95,1.1,0.9
156,'D156',115.0,1,1,4,1,1.02298,17.2511,1.05,0.95,1.1,0.9
157,'D157',46.0,1,1,4,1,1.02315,17.1976,1.05,0.95,1.1,0.9
158,'D158',115.0,1,1,4,1,1.02176,17.1328,1.05,0.95,1.1,0.9
159,'D159',46.0,1,1,4,1,1.00886,16.2151,1.05,0.95,1.1,0.9
160,'D160',230.0,2,1,4,1,1.011,20.8444,1.05,0.95,1.1,0.9
161,'D161',46.0,1,1,4,1,1.01148,16.131,1.05,0.95,1.1,0.9
162,'D162',115.0,1,1,4,1,1.02356,18.6033,1.05,0.95,1.1,0.9
163,'D163',13.8,2,1,4,1,1.02236,17.1227,1.05,0.95,1.1,0.9
164,'D164',115.0,1,1,4,1,1.02265,17.8407,1.05,0.95,1.1,0.9
165,'D165',115.0,1,1,4,1,1.02369,17.7216,1.05,0.95,1.1,0.9
166,'D166',115.0,1,1,4,1,1.02505,18.5656,1.05,0.95,1.1,0.9
167,'D167',230.0,1,1,4,1,1.013,19.1492,1.05,0.95,1.1,0.9
168,'D168',115.0,1,1,4,1,1.0212,16.9196,1.05,0.95,1.1,0.9
169,'D169',115.0,1,1,4,1,1.02351,18.3321,1.05,0.95,1.1,0.9
170,'D170',115.0,1,1,4,1,1.0219,17.363,1.05,0.95,1.1,0.9
171,'D171',230.0,1,1,4,1,1.01847,19.3805,1.05,0.95,1.1,0.9
172,'D172',115.0,1,1,4,1,1.02168,14.1892,1.05,0.95,1.1,0.9
173,'D173',46.0,1,1,4,1,1.01289,16.5791,1.05,0.95,1.1,0.9
174,'D174',115.0,1,1,4,1,1.026,18.808,1.05,0.95,1.1,0.9
175,'D175',115.0,1,1,4,1,1.03444,16.9798,1.05,0.95,1.1,0.9
176,'D176',115.0,1,1,4,1,1.02271,17.8601,1.05,0.95,1.1,0.9
177,'D177',230.0,1,1,4,1,1.01393,17.7384,1.05,0.95,1.1,0.9
178,'D178',34.5,2,1,4,1,1.02082,16.7558,1.05,0.95,1.1,0.9
179,'D179',13.8,2,1,4,1,1.02298,17.2511,1.05,0.95,1.1,0.9
180,'D180',115.0,1,1,4,1,1.02484,13.253,1.05,0.95,1.1,0.9
181,'D181',46.0,1,1,4,1,1.0333,16.7641,1.05,0.95,1.1,0.9
182,'D182',34.5,2,1,4,1,1.02176,17.1328,1.05,0.95,1.1,0.9
183,'D183',115.0,1,1,4,1,1.02354,18.3159,1.05,0.95,1.1,0.9
184,'D184',46.0,1,1,4,1,1.01661,15.6174,1.05,0.95,1.1,0.9
185,'D185',115.0,1,1,4,1,1.02272,18.5666,1.05,0.95,1.1,0.9
186,'D186',230.0,1,1,4,1,1.01467,18.7445,1.05,0.95,1.1,0.9
187,'D187',115.0,1,1,4,1,1.02061,15.8599,1.05,0.95,1.1,0.9
188,'D188',115.0,1,1,4,1,1.02334,18.3506,1.05,0.95,1.1,0.9
189,'D189',230.0,1,1,4,1,1.01325,19.6453,1.05,0.95,1.1,0.9
190,'D190',46.0,1,1,4,1,1.02002,16.2715,1.05,0.95,1.1,0.9
191,'D191',22.0,1,1,4,1,1.01984,17.027,1.05,0.95,1.1,0.9
192,'D192',34.5,2,1,4,1,1.02405,15.4574,1.05,0.95,1.1,0.9
193,'D193',115.0,1,1,4,1,1.03459,16.4016,1.05,0.95,1.1,0.9
194,'D194',46.0,1,1,4,1,1.01467,17.1275,1.05,0.95,1.1,0.9
195,'D195',46.0,1,1,4,1,1.01973,16.0919,1.05,0.95,1.1,0.9
196,'D196',34.5,2,1,4,1,1.02176,17.1328,1.05,0.95,1.1,0.9
197,'D197',46.0,1,1,4,1,1.01475,16.1756,1.05,0.95,1.1,0.9
198,'D198',115.0,1,1,4,1,1.02217,17.6449,1.05,0.95,1.1,0.9
199,'D199',34.5,2,1,4,1,1.01467,18.7445,1.05,0.95,1.1,0.9
200,'D200',46.0,1,1,4,1,1.01975,13.6018,1.05,0.95,1.1,0.9
...
0 / END OF BUS DATA BEGIN LOAD DATA
4,'1',1,1,1,-29.987,7.158,0.0,0.0,0.0,0.0,1,1,0
5,'1',1,1,1,38.635,-9.174,0.0,0.0,0.0,0.0,1,1,0
7,'1',1,1,1,-50.233,-0.259,0.0,0.0,0.0,0.0,1,1,0
9,'1',1,1,1,34.468,-14.541,0.0,0.0,0.0,0.0,1,1,0
11,'1',1,1,1,14.462,1.892,0.0,0.0,0.0,0.0,1,1,0
12,'99',0,1,1,22.891,2.788,0.0,0.0,0.0,0.0,1,1,0
14,'99',0,1,1,259.475,-10.863,0.0,0.0,0.0,0.0,1,1,0
15,'1',1,1,1,-29.993,7.158,0.0,0.0,0.0,0.0,1,1,0
16,'1',1,1,1,18.943,5.405,0.0,0.0,0.0,0.0,1,1,0
16,'2',1,1,1,21.284,0.244,0.0,0.0,0.0,0.0,1,1,0
16,'99',0,1,1,6.157,-17.663,0.0,0.0,0.0,0.0,1,1,0
17,'1',1,1,1,9.123,2.478,0.0,0.0,0.0,0.0,1,1,0
18,'1',1,1,1,13.025,0.978,0.0,0.0,0.0,0.0,1,1,0
21,'1',1,1,1,-30.227,9.361,0.0,0.0,0.0,0.0,1,1,0
25,'1',1,1,1,-34.012,7.497,0.0,0.0,0.0,0.0,1,1,0
26,'1',1,1,1,34.386,-7.016,0.0,0.0,0.0,0.0,1,1,0
27,'1',1,1,1,47.863,-13.215,0.0,0.0,0.0,0.0,1,1,0
28,'1',1,1,1,-68.569,-2.269,0.0,0.0,0.0,0.0,1,1,0
30,'1',1,1,1,27.835,8.427,0.0,0.0,0.0,0.0,1,1,0
32,'1',1,1,1,21.474,5.56,0.0,0.0,0.0,0.0,1,1,0
32,'99',0,1,1,19.614,-35.517,0.0,0.0,0.0,0.0,1,1,0
33,'1',1,1,1,-15.547,8.981,0.0,0.0,0.0,0.0,1,1,0
34,'1',1,1,1,33.148,26.474,0.0,0.0,0.0,0.0,1,1,0
35,'1',1,1,1,9.763,1.747,0.0,0.0,0.0,0.0,1,1,0
42,'1',1,1,1,11.547,1.924,0.0,0.0,0.0,0.0,1,1,0
44,'1',1,1,1,-50.23,-0.437,0.0,0.0,0.0,0.0,1,1,0
47,'1',1,1,1,48.411,-11.392,0.0,0.0,0.0,0.0,1,1,0
49,'1',1,1,1,10.671,1.348,0.0,0.0,0.0,0.0,1,1,0
50,'1',1,1,1,7.595,-1.725,0.0,0.0,0.0,0.0,1,1,0
52,'1',1,1,1,7.38,0.864,0.0,0.0,0.0,0.0,1,1,0
54,'1',1,1,1,25.417,1.073,0.0,0.0,0.0,0.0,1,1,0
54,'2',1,1,1,39.582,3.003,0.0,0.0,0.0,0.0,1,1,0
59,'99',1,1,2,3.608,-3.073,0.0,0.0,0.0,0.0,1,1,0
61,'1',1,1,2,-0.165,0.187,0.0,0.0,0.0,0.0,1,1,0
63,'1',1,1,2,3.215,-0.177,0.0,0.0,0.0,0.0,1,1,0
66,'1',1,1,2,1.285,-2.0,0.0,0.0,0.0,0.0,1,1,0
74,'1',1,1,3,22.44,10.266,0.0,0.0,0.0,0.0,1,1,0
75,'99',1,1,3,9.409,-4.883,0.0,0.0,0.0,0.0,1,1,0
77,'1',1,1,3,1.725,0.478,0.0,0.0,0.0,0.0,1,1,0
78,'1',1,1,3,3.544,-0.206,0.0,0.0,0.0,0.0,1,1,0
79,'1',1,1,3,17.75,-0.468,0.0,0.0,0.0,0.0,1,1,0
81,'1',1,1,3,6.766,1.525,0.0,0.0,0.0,0.0,1,1,0
83,'1',1,1,3,-2.06,2.063,0.0,0.0,0.0,0.0,1,1,0
85,'1',1,1,3,4.013,0.269,0.0,0.0,0.0,0.0,1,1,0
85,'2',1,1,3,5.433,0.585,0.0,0.0,0.0,0.0,1,1,0
86,'1',1,1,3,14.955,1.804,0.0,0.0,0.0,0.0,1,1,0
87,'99',1,1,3,150.528,2.427,0.0,0.0,0.0,0.0,1,1,0
88,'99',1,1,3,16.791,4.371,0.0,0.0,0.0,0.0,1,1,0
89,'99',1,1,3,60.051,0.695,0.0,0.0,0.0,0.0,1,1,0
90,'1',1,1,3,10.984,3.022,0.0,0.0,0.0,0.0,1,1,0
91,'1',1,1,3,3.19,0.759,0.0,0.0,0.0,0.0,1,1,0
92,'1',1,1,3,5.759,2.589,0.0,0.0,0.0,0.0,1,1,0
92,'2',1,1,3,5.759,2.589,0.0,0.0,0.0,0.0,1,1,0
92,'99',1,1,3,0.87,-6.674,0.0,0.0,0.0,0.0,1,1,0
93,'99',1,1,3,43.341,-7.357,0.0,0.0,0.0,0.0,1,1,0
94,'1',1,1,3,6.525,1.323,0.0,0.0,0.0,0.0,1,1,0
96,'1',1,1,3,5.101,1.082,0.0,0.0,0.0,0.0,1,1,0
97,'99',1,1,3,48.526,-9.836,0.0,0.0,0.0,0.0,1,1,0
98,'1',1,1,3,8.895,3.297,0.0,0.0,0.0,0.0,1,1,0
99,'1',1,1,3,12.775,4.405,0.0,0.0,0.0,0.0,1,1,0
99,'99',0,1,3,6.589,-2.898,0.0,0.0,0.0,0.0,1,1,0
103,'1',1,1,3,10.019,-8.405,0.0,0.0,0.0,0.0,1,1,0
107,'1',1,1,3,1.427,0.763,0.0,0.0,0.0,0.0,1,1,0
109,'99',1,1,3,27.955,-2.899,0.0,0.0,0.0,0.0,1,1,0
112,'1',1,1,3,7.44,9.468,0.0,0.0,0.0,0.0,1,1,0
113,'99',1,1,3,215.963,-32.892,0.0,0.0,0.0,0.0,1,1,0
114,'99',1,1,3,24.146,-5.796,0.0,0.0,0.0,0.0,1,1,0
115,'1',1,1,3,10.367,4.475,0.0,0.0,0.0,0.0,1,1,0
116,'1',1,1,3,9.126,0.506,0.0,0.0,0.0,0.0,1,1,0
117,'1',1,1,3,4.965,-1.025,0.0,0.0,0.0,0.0,1,1,0
119,'1',1,1,3,-0.544,1.959,0.0,0.0,0.0,0.0,1,1,0
122,'1',1,1,3,0.953,-3.247,0.0,0.0,0.0,0.0,1,1,0
123,'1',1,1,3,11.307,0.589,0.0,0.0,0.0,0.0,1,1,0
128,'1',1,1,3,11.522,1.896,0.0,0.0,0.0,0.0,1,1,0
128,'2',1,1,3,-0.718,1.19,0.0,0.0,0.0,0.0,1,1,0
129,'1',1,1,3,-0.547,1.918,0.0,0.0,0.0,0.0,1,1,0
130,'1',1,1,3,-14.693,1.497,0.0,0.0,0.0,0.0,1,1,0
131,'1',1,1,3,1.231,0.38,0.0,0.0,0.0,0.0,1,1,0
132,'1',1,1,3,38.74,4.952,0.0,0.0,0.0,0.0,1,1,0
133,'1',1,1,3,14.095,5.886,0.0,0.0,0.0,0.0,1,1,0
134,'1',1,1,3,7.44,4.433,0.0,0.0,0.0,0.0,1,1,0
136,'99',1,1,3,0.988,-3.662,0.0,0.0,0.0,0.0,1,1,0
138,'1',1,1,3,9.962,1.158,0.0,0.0,0.0,0.0,1,1,0
139,'1',1,1,3,-1.604,0.038,0.0,0.0,0.0,0.0,1,1,0
140,'1',1,1,3,4.968,-1.025,0.0,0.0,0.0,0.0,1,1,0
144,'1',1,1,3,3.987,0.25,0.0,0.0,0.0,0.0,1,1,0
145,'1',1,1,3,11.054,3.313,0.0,0.0,0.0,0.0,1,1,0
146,'1',1,1,3,0.528,1.269,0.0,0.0,0.0,0.0,1,1,0
146,'2',1,1,3,1.364,1.918,0.0,0.0,0.0,0.0,1,1,0
147,'1',1,1,3,5.832,1.358,0.0,0.0,0.0,0.0,1,1,0
148,'1',1,1,3,9.585,4.842,0.0,0.0,0.0,0.0,1,1,0
149,'1',1,1,3,5.902,3.718,0.0,0.0,0.0,0.0,1,1,0
149,'2',1,1,3,6.133,2.924,0.0,0.0,0.0,0.0,1,1,0
150,'1',1,1,3,0.329,1.003,0.0,0.0,0.0,0.0,1,1,0
153,'1',1,1,4,5.032,2.003,0.0,0.0,0.0,0.0,1,1,0
153,'2',1,1,4,4.645,-0.313,0.0,0.0,0.0,0.0,1,1,0
154,'1',1,1,4,12.323,-0.244,0.0,0.0,0.0,0.0,1,1,0
156,'1',1,1,4,3.076,0.446,0.0,0.0,0.0,0.0,1,1,0
159,'1',1,1,4,2.434,0.547,0.0,0.0,0.0,0.0,1,1,0
160,'99',0,1,4,131.274,-62.291,0.0,0.0,0.0,0.0,1,1,0
161,'1',1,1,4,5.649,2.073,0.0,0.0,0.0,0.0,1,1,0
162,'1',1,1,4,1.449,0.348,0.0,0.0,0.0,0.0,1,1,0
162,'2',1,1,4,2.778,0.497,0.0,0.0,0.0,0.0,1,1,0
162,'3',1,1,4,2.845,0.782,0.0,0.0,0.0,0.0,1,1,0
163,'1',1,1,4,2.013,0.364,0.0,0.0,0.0,0.0,1,1,0
164,'1',1,1,4,2.702,-0.408,0.0,0.0,0.0,0.0,1,1,0
165,'1',1,1,4,4.221,0.155,0.0,0.0,0.0,0.0,1,1,0
165,'2',1,1,4,6.399,0.712,0.0,0.0,0.0,0.0,1,1,0
166,'1',1,1,4,2.443,-0.193,0.0,0.0,0.0,0.0,1,1,0
166,'2',1,1,4,2.123,0.256,0.0,0.0,0.0,0.0,1,1,0
168,'1',1,1,4,0.756,0.301,0.0,0.0,0.0,0.0,1,1,0
168,'2',1,1,4,1.481,-0.832,0.0,0.0,0.0,0.0,1,1,0
170,'1',1,1,4,3.047,0.301,0.0,0.0,0.0,0.0,1,1,0
173,'1',1,1,4,7.405,0.256,0.0,0.0,0.0,0.0,1,1,0
174,'1',1,1,4,-0.13,-0.437,0.0,0.0,0.0,0.0,1,1,0
176,'1',1,1,4,4.098,-1.377,0.0,0.0,0.0,0.0,1,1,0
176,'2',1,1,4,3.933,-0.434,0.0,0.0,0.0,0.0,1,1,0
177,'99',1,1,4,49.046,-10.242,0.0,0.0,0.0,0.0,1,1,0
180,'1',1,1,4,4.117,-0.399,0.0,0.0,0.0,0.0,1,1,0
180,'2',1,1,4,4.329,0.589,0.0,0.0,0.0,0.0,1,1,0
180,'99',1,1,4,7.973,-7.594,0.0,0.0,0.0,0.0,1,1,0
181,'1',1,1,4,2.759,-0.222,0.0,0.0,0.0,0.0,1,1,0
183,'1',1,1,4,1.918,-0.49,0.0,0.0,0.0,0.0,1,1,0
184,'1',1,1,4,3.731,0.737,0.0,0.0,0.0,0.0,1,1,0
187,'1',1,1,4,2.054,-0.487,0.0,0.0,0.0,0.0,1,1,0
188,'1',1,1,4,0.972,-0.715,0.0,0.0,0.0,0.0,1,1,0
188,'2',1,1,4,0.832,-0.706,0.0,0.0,0.0,0.0,1,1,0
190,'1',1,1,4,2.642,0.149,0.0,0.0,0.0,0.0,1,1,0
191,'1',1,1,4,-0.165,0.187,0.0,0.0,0.0,0.0,1,1,0
193,'1',1,1,4,0.047,0.307,0.0,0.0,0.0,0.0,1,1,0
193,'99',1,1,4,29.987,-4.967,0.0,0.0,0.0,0.0,1,1,0
195,'1',1,1,4,2.728,-0.801,0.0,0.0,0.0,0.0,1,1,0
200,'1',1,1,4,3.74,-0.199,0.0,0.0,0.0,0.0,1,1,0
201,'1',1,1,4,2.278,0.782,0.0,0.0,0.0,0.0,1,1,0
203,'1',1,1,4,-0.297,-4.756,0.0,0.0,0.0,0.0,1,1,0
203,'2',1,1,4,1.234,-3.731,0.0,0.0,0.0,0.0,1,1,0
204,'99',0,1,4,67.773,-34.499,0.0,0.0,0.0,0.0,1,1,0
206,'1',1,1,4,-0.579,-0.13,0.0,0.0,0.0,0.0,1,1,0
207,'1',1,1,4,-0.104,1.551,0.0,0.0,0.0,0.0,1,1,0
208,'1',1,1,4,4.649,0.025,0.0,0.0,0.0,0.0,1,1,0
214,'1',1,1,4,4.386,-0.111,0.0,0.0,0.0,0.0,1,1,0
214,'2',1,1,4,4.386,-0.111,0.0,0.0,0.0,0.0,1,1,0
215,'1',1,1,4,1.408,0.864,0.0,0.0,0.0,0.0,1,1,0
216,'1',1,1,4,4.709,0.785,0.0,0.0,0.0,0.0,1,1,0
216,'2',1,1,4,4.237,0.247,0.0,0.0,0.0,0.0,1,1,0
217,'1',1,1,4,7.649,4.392,0.0,0.0,0.0,0.0,1,1,0
218,'1',1,1,4,6.31,0.367,0.0,0.0,0.0,0.0,1,1,0
219,'1',1,1,4,2.962,1.74,0.0,0.0,0.0,0.0,1,1,0
220,'1',1,1,4,1.88,0.38,0.0,0.0,0.0,0.0,1,1,0
221,'1',1,1,4,5.386,1.013,0.0,0.0,0.0,0.0,1,1,0
221,'2',1,1,4,6.244,0.579,0.0,0.0,0.0,0.0,1,1,0
222,'1',1,1,4,1.285,-2.0,0.0,0.0,0.0,0.0,1,1,0
223,'1',1,1,4,2.168,0.066,0.0,0.0,0.0,0.0,1,1,0
226,'99',1,1,4,18.887,-3.608,0.0,0.0,0.0,0.0,1,1,0
227,'1',1,1,4,-0.598,0.142,0.0,0.0,0.0,0.0,1,1,0
228,'1',1,1,4,5.155,1.81,0.0,0.0,0.0,0.0,1,1,0
229,'1',1,1,4,3.152,0.184,0.0,0.0,0.0,0.0,1,1,0
229,'2',1,1,4,4.696,0.627,0.0,0.0,0.0,0.0,1,1,0
231,'1',1,1,4,0.962,-0.772,0.0,0.0,0.0,0.0,1,1,0
233,'1',1,1,4,3.725,-0.06,0.0,0.0,0.0,0.0,1,1,0
235,'1',1,1,4,2.016,-0.18,0.0,0.0,0.0,0.0,1,1,0
236,'1',1,1,4,3.076,-0.263,0.0,0.0,0.0,0.0,1,1,0
239,'1',1,1,4,0.535,2.611,0.0,0.0,0.0,0.0,1,1,0
241,'99',1,1,4,6.915,-3.269,0.0,0.0,0.0,0.0,1,1,0
244,'1',1,1,4,6.889,0.063,0.0,0.0,0.0,0.0,1,1,0
246,'1',1,1,4,2.839,0.794,0.0,0.0,0.0,0.0,1,1,0
248,'1',1,1,4,3.418,0.807,0.0,0.0,0.0,0.0,1,1,0
249,'1',1,1,4,3.557,0.427,0.0,0.0,0.0,0.0,1,1,0
253,'1',1,1,5,12.028,2.263,0.0,0.0,0.0,0.0,1,1,0
254,'1',1,1,5,5.576,-0.513,0.0,0.0,0.0,0.0,1,1,0
256,'1',1,1,5,7.475,0.335,0.0,0.0,0.0,0.0,1,1,0
256,'2',1,1,5,7.475,0.335,0.0,0.0,0.0,0.0,1,1,0
259,'1',1,1,5,4.294,0.196,0.0,0.0,0.0,0.0,1,1,0
264,'1',1,1,5,3.778,-0.427,0.0,0.0,0.0,0.0,1,1,0
264,'2',1,1,5,3.778,-0.427,0.0,0.0,0.0,0.0,1,1,0
264,'3',1,1,5,3.778,-0.427,0.0,0.0,0.0,0.0,1,1,0
267,'1',1,1,5,6.342,0.111,0.0,0.0,0.0,0.0,1,1,0
267,'2',1,1,5,6.18,0.946,0.0,0.0,0.0,0.0,1,1,0
269,'1',1,1,5,20.924,3.165,0.0,0.0,0.0,0.0,1,1,0
273,'1',1,1,5,8.845,2.772,0.0,0.0,0.0,0.0,1,1,0
283,'1',1,1,5,5.516,0.437,0.0,0.0,0.0,0.0,1,1,0
284,'1',1,1,5,5.883,0.231,0.0,0.0,0.0,0.0,1,1,0
284,'2',1,1,5,5.883,0.231,0.0,0.0,0.0,0.0,1,1,0
284,'3',1,1,5,5.883,0.231,0.0,0.0,0.0,0.0,1,1,0
284,'4',1,1,5,5.883,0.231,0.0,0.0,0.0,0.0,1,1,0
287,'1',1,1,5,5.617,3.858,0.0,0.0,0.0,0.0,1,1,0
287,'2',1,1,5,5.617,3.858,0.0,0.0,0.0,0.0,1,1,0
291,'1',1,1,5,4.63,0.725,0.0,0.0,0.0,0.0,1,1,0
292,'99',1,1,5,103.242,24.731,0.0,0.0,0.0,0.0,1,1,0
294,'1',1,1,5,7.506,0.269,0.0,0.0,0.0,0.0,1,1,0
294,'2',1,1,5,7.506,0.269,0.0,0.0,0.0,0.0,1,1,0
296,'1',1,1,5,10.484,5.728,0.0,0.0,0.0,0.0,1,1,0
298,'1',1,1,5,14.066,3.905,0.0,0.0,0.0,0.0,1,1,0
298,'2',1,1,5,14.066,3.905,0.0,0.0,0.0,0.0,1,1,0
303,'1',1,1,5,6.835,0.316,0.0,0.0,0.0,0.0,1,1,0
309,'1',1,1,5,0.652,-2.801,0.0,0.0,0.0,0.0,1,1,0
312,'1',1,1,5,2.563,0.848,0.0,0.0,0.0,0.0,1,1,0
313,'1',1,1,5,2.579,4.234,0.0,0.0,0.0,0.0,1,1,0
313,'2',1,1,5,16.266,8.842,0.0,0.0,0.0,0.0,1,1,0
316,'1',1,1,5,6.557,-0.728,0.0,0.0,0.0,0.0,1,1,0
...
0 / END OF LOAD DATA BEGIN FIXED SHUNT DATA
12,'99',1,0.0,2.664
16,'99',1,0.0,-17.445
23,'99',1,0.0,10.787
32,'99',1,0.0,-34.159
66,'99',1,0.0,-15.861
99,'99',1,0.0,-2.847
110,'99',1,0.0,7.776
116,'99',1,0.0,51.25
131,'99',1,0.0,7.254
160,'99',1,0.0,-59.884
204,'99',1,0.0,-32.353
223,'99',1,0.0,12.54
225,'99',1,0.0,3.413
294,'99',1,0.0,-4.561
300,'99',1,0.0,-22.762
315,'99',1,0.0,20.519
319,'99',1,0.0,-24.136
331,'99',1,0.0,-40.033
373,'99',1,0.0,-42.075
380,'99',1,0.0,-7.745
413,'99',1,0.0,26.063
415,'99',1,0.0,18.111
417,'99',1,0.0,12.322
463,'99',1,0.0,5.565
469,'99',1,0.0,8.481
477,'99',1,0.0,4.788
490,'99',1,0.0,40.614
493,'99',1,0.0,-15.605
505,'99',1,0.0,11.031
511,'99',1,0.0,7.141
526,'99',1,0.0,58.406
536,'99',1,0.0,10.172
559,'99',1,0.0,-7.526
660,'99',1,0.0,131.363
666,'99',1,0.0,-1.426
678,'99',1,0.0,46.173
910,'99',1,0.0,-17.163
949,'99',1,0.0,-57.137
975,'99',1,0.0,-22.802
1026,'99',1,0.0,52.62
1065,'99',1,0.0,-17.869
1186,'99',1,0.0,-13.527
1206,'99',1,0.0,-21.227
1212,'99',1,0.0,7.441
1214,'99',1,0.0,-10.675
1261,'99',1,0.0,-26.327
1268,'99',1,0.0,-13.078
1326,'99',1,0.0,0.447
1366,'99',1,0.0,30.53
1367,'99',1,0.0,-85.711
1389,'99',1,0.0,21.371
1405,'99',1,0.0,-5.636
1469,'99',1,0.0,4.576
1472,'99',1,0.0,68.875
1490,'99',1,0.0,-11.341
1523,'99',1,0.0,-0.597
1596,'99',1,0.0,-2.77
1608,'99',1,0.0,107.695
1666,'99',1,0.0,35.076
1713,'99',1,0.0,44.457
1715,'99',1,0.0,28.052
1754,'99',1,0.0,9.137
1769,'99',1,0.0,137.513
1772,'99',1,0.0,18.26
1871,'99',1,0.0,109.182
1874,'99',1,0.0,17.981
1881,'99',1,0.0,-1.066
1899,'99',1,0.0,-55.276
1966,'99',1,0.0,10.11
1983,'99',1,0.0,89.017
1991,'99',1,0.0,-6.216
1992,'99',1,0.0,-63.017
1994,'99',1,0.0,125.504
2163,'99',1,0.0,-24.38
2185,'99',1,0.0,41.553
2192,'99',1,0.0,-22.419
2199,'99',1,0.0,-43.771
2208,'99',1,0.0,5.411
2230,'99',1,0.0,1.625
2242,'99',1,0.0,45.209
2252,'99',1,0.0,20.955
2303,'99',1,0.0,-1.985
2324,'99',1,0.0,-12.701
2375,'99',1,0.0,-0.797
2386,'99',1,0.0,2.301
2389,'99',1,0.0,18.865
2397,'99',1,0.0,-4.732
2429,'99',1,0.0,1.7
2436,'99',1,0.0,-2.858
2437,'99',1,0.0,-2.864
2439,'99',1,0.0,-3.769
2440,'99',1,0.0,-3.77
2443,'99',1,0.0,-21.078
2444,'99',1,0.0,-21.078
2445,'99',1,0.0,-39.396
2448,'99',1,0.0,25.649
2451,'99',1,0.0,-1.928
2452,'99',1,0.0,-1.942
2505,'99',1,0.0,1.655
2537,'99',1,0.0,5.439
2557,'99',1,0.0,-2.408
2568,'99',1,0.0,31.065
2585,'99',1,0.0,35.6
2612,'99',1,0.0,23.459
2633,'99',1,0.0,-0.849
2634,'99',1,0.0,4.733
2645,'99',1,0.0,-13.322
2664,'99',1,0.0,-0.759
2671,'99',1,0.0,0.624
2689,'99',1,0.0,3.275
2792,'99',1,0.0,12.308
2800,'99',1,0.0,-45.119
2813,'99',1,0.0,42.927
2814,'99',1,0.0,74.913
2826,'99',1,0.0,-128.245
2829,'99',1,0.0,-106.655
2836,'99',1,0.0,0.709
2840,'99',1,0.0,53.016
2841,'99',1,0.0,-1.039
2843,'99',1,0.0,10.356
2873,'99',1,0.0,0.713
2874,'99',1,0.0,-7.759
2921,'99',1,0.0,4.396
2922,'99',1,0.0,-46.019
2935,'99',1,0.0,-1.674
2955,'99',1,0.0,-1.64
2966,'99',1,0.0,5.996
2991,'99',1,0.0,-14.913
2995,'99',1,0.0,3.541
0 / END OF FIXED SHUNT DATA BEGIN GENERATOR DATA
9,'94',3.1,-111.393,500.0,-500.0,1.0,0,100.0,0.0,1.0,0.0,0.0,1.0,1,100.0,40.0,3.0,1,1.0,0,1.0,0,1.0,0,1.0,0,1.0
21,'1',0.0,0.0,532.035,-532.035,1.0,0,100.0,0.0,1.0,0.0,0.0,1.0,0,100.0,1764.706,88.235,1,1.0,0,1.0,0,1.0,0,1.0,0,1.0
23,'99',288.798,-33.333,33.333,-33.333,1.01092,0,100.0,0.0,1.0,0.0,0.0,1.0,1,100.0,357.409,17.87,1,1.0,0,1.0,0,1.0,0,1.0,0,1.0
25,'1',370.2,-117.562,400.0,-400.0,1.0,0,100.0,0.0,1.0,0.0,0.0,1.0,1,100.0,2076.125,103.806,1,1.0,0,1.0,0,1.0,0,1.0,0,1.0
27,'99',31.811,29.28,550.0,-550.0,1.0361,0,100.0,0.0,1.0,0.0,0.0,1.0,1,100.0,1500.0,28.457,1,1.0,0,1.0,0,1.0,0,1.0,0,1.0
42,'99',11.961,39.47,550.0,-550.0,1.0108,0,100.0,0.0,1.0,0.0,0.0,1.0,1,100.0,1500.0,11.961,1,1.0,0,1.0,0,1.0,0,1.0,0,1.0
46,'99',57.959,-65.012,550.0,-550.0,1.0132,0,100.0,0.0,1.0,0.0,0.0,1.0,1,100.0,1500.0,51.849,1,1.0,0,1.0,0,1.0,0,1.0,0,1.0
51,'99',9.216,26.183,550.0,-550.0,1.0218,0,100.0,0.0,1.0,0.0,0.0,1.0,1,100.0,1500.0,8.244,1,1.0,0,1.0,0,1.0,0,1.0,0,1.0
55,'1',0.0,0.0,131.303,-131.303,1.04,0,35.0,0.0,0.8,0.0,0.0,1.0,0,100.0,422.059,5.7,1,1.0,0,1.0,0,1.0,0,1.0,0,1.0
60,'1',3.1,0.0,9.352,-9.352,1.04,0,100.0,0.0,1.0,0.0,0.0,1.0,0,100.0,41.606,3.0,1,1.0,0,1.0,0,1.0,0,1.0,0,1.0
70,'1',5.32,9.296,9.296,-9.296,1.04,0,100.0,0.0,1.0,0.0,0.0,1.0,1,100.0,41.36,5.32,1,1.0,0,1.0,0,1.0,0,1.0,0,1.0
73,'99',45.574,-32.435,550.0,-550.0,1.0,0,100.0,0.0,1.0,0.0,0.0,1.0,1,100.0,1500.0,40.769,1,1.0,0,1.0,0,1.0,0,1.0,0,1.0
75,'1',282.919,-17.071,425.895,-425.895,1.04,0,1020.0,0.0033,0.243,0.0014,0.1257,1.0,1,100.0,2000.0,10.0,1,1.0,0,1.0,0,1.0,0,1.0,0,1.0
75,'2',481.113,-29.029,426.656,-426.656,1.04,0,1020.0,0.0033,0.243,0.0014,0.1257,1.0,1,100.0,2000.0,10.0,1,1.0,0,1.0,0,1.0,0,1.0,0,1.0
78,'99',3.1,-46.065,550.0,-550.0,1.0085,0,100.0,0.0,1.0,0.0,0.0,1.0,1,100.0,1500.0,3.0,1,1.0,0,1.0,0,1.0,0,1.0,0,1.0
96,'99',31.897,-91.833,550.0,-550.0,1.0133,0,100.0,0.0,1.0,0.0,0.0,1.0,1,100.0,1500.0,6.17,1,1.0,0,1.0,0,1.0,0,1.0,0,1.0
112,'97',3.1,-3.66,3.66,-3.66,1.01,0,100.0,0.0,0.1,0.0,0.0,1.0,1,100.0,40.0,3.0,1,1.0,0,1.0,0,1.0,0,1.0,0,1.0
116,'99',3.1,-14.076,51.286,-51.286,1.0311,0,100.0,0.0,1.0,0.0,0.0,1.0,1,100.0,228.172,3.0,1,1.0,0,1.0,0,1.0,0,1.0,0,1.0
119,'1',0.0,0.0,284.382,-284.382,1.04,0,686.0,0.0,0.195,0.0,0.0,1.0,0,100.0,914.118,45.706,1,1.0,0,1.0,0,1.0,0,1.0,0,1.0
129,'1',3.1,-1.984,281.019,-281.019,1.0239,0,686.0,0.0,0.195,0.0,0.0,1.0,1,100.0,1250.255,3.0,1,1.0,0,1.0,0,1.0,0,1.0,0,1.0
141,'99',139.739,-46.569,550.0,-550.0,1.0393,0,100.0,0.0,1.0,0.0,0.0,1.0,1,100.0,1500.0,75.0,1,1.0,0,1.0,0,1.0,0,1.0,0,1.0
147,'1',3.1,-9.607,9.607,-9.607,1.0298,0,100.0,0.0,1.0,0.0,0.0,1.0,1,100.0,40.0,3.0,1,1.0,0,1.0,0,1.0,0,1.0,0,1.0
151,'1',0.0,0.0,120.323,-120.323,1.013,0,100.0,0.0,1.0,0.0,0.0,1.0,0,100.0,386.765,19.338,1,1.0,0,1.0,0,1.0,0,1.0,0,1.0
152,'1',0.0,0.0,135.878,-135.878,1.04,0,35.0,0.0,0.8,0.0,0.0,1.0,0,100.0,436.765,5.7,1,1.0,0,1.0,0,1.0,0,1.0,0,1.0
154,'1',3.1,-38.996,135.42,-135.42,1.01,0,100.0,0.0,1.0,0.0,0.0,1.0,1,100.0,512.111,3.0,1,1.0,0,1.0,0,1.0,0,1.0,0,1.0
160,'1',3.1,0.0,16.813,-16.813,1.0199,0,40.6,0.0,0.15,0.0002,0.0548,1.025,0,100.0,54.044,3.0,1,1.0,0,1.0,0,1.0,0,1.0,0,1.0
163,'1',0.0,0.0,32.357,-32.357,1.0249,0,60.67,0.0,0.15,0.0,0.0,1.01,0,100.0,104.007,9.5,1,1.0,0,1.0,0,1.0,0,1.0,0,1.0
178,'1',3.1,0.0,8.321,-8.321,1.04,0,52.5,0.0,0.8,0.0,0.0,1.0,0,100.0,26.746,3.0,1,1.0,0,1.0,0,1.0,0,1.0,0,1.0
179,'1',0.0,0.0,56.044,-56.044,1.0265,0,102.0,0.0,0.15,0.0,0.0,1.005,0,100.0,180.147,38.0,1,1.0,0,1.0,0,1.0,0,1.0,0,1.0
182,'1',0.0,0.0,10.426,-10.426,1.0235,0,38.65,0.0,0.8,0.0,0.0,1.0,0,100.0,33.515,7.79,1,1.0,0,1.0,0,1.0,0,1.0,0,1.0
192,'1',0.0,0.0,134.962,-134.962,1.0095,0,100.0,0.0,0.18599,0.0,0.0,1.0,0,100.0,433.824,21.691,1,1.0,0,1.0,0,1.0,0,1.0,0,1.0
196,'1',3.1,0.0,11.929,-11.929,1.0235,0,38.65,0.0,0.8,0.0,0.0,1.0,0,100.0,38.346,3.0,1,1.0,0,1.0,0,1.0,0,1.0,0,1.0
199,'1',0.0,0.0,14.745,-14.745,1.0298,0,126.32,0.0,0.8,0.0,0.0,1.0,0,100.0,47.397,19.66,1,1.0,0,1.0,0,1.0,0,1.0,0,1.0
199,'2',0.0,0.0,24.019,-24.019,1.0298,0,100.0,0.0,1.0,0.0,0.0,1.0,0,100.0,77.206,3.86,1,1.0,0,1.0,0,1.0,0,1.0,0,1.0
199,'3',3.1,0.0,9.607,-9.607,1.0298,0,100.0,0.0,1.0,0.0,0.0,1.0,0,100.0,30.882,3.0,1,1.0,0,1.0,0,1.0,0,1.0,0,1.0
211,'1',3.1,-4.26,11.209,-11.209,1.0182,0,100.0,0.0,1.0,0.0,0.0,1.0,1,100.0,40.0,3.0,1,1.0,0,1.0,0,1.0,0,1.0,0,1.0
217,'1',0.0,0.0,297.832,-297.832,1.0,0,733.0,0.0,0.295,0.0,0.0,1.0,0,100.0,957.353,304.0,1,1.0,0,1.0,0,1.0,0,1.0,0,1.0
224,'1',0.0,0.0,431.367,-431.367,1.0116,0,650.0,0.0,0.225,0.0,0.0,1.0,0,100.0,1386.585,427.4,1,1.0,0,1.0,0,1.0,0,1.0,0,1.0
237,'1',0.0,0.0,10.34,-10.34,1.0303,0,100.0,0.0,1.0,0.0,0.0,1.0,0,100.0,33.235,7.6,1,1.0,0,1.0,0,1.0,0,1.0,0,1.0
243,'99',10.03,-57.955,550.0,-550.0,1.0124,0,100.0,0.0,1.0,0.0,0.0,1.0,1,100.0,1500.0,8.973,1,1.0,0,1.0,0,1.0,0,1.0,0,1.0
252,'1',0.0,0.0,69.06,-69.06,1.02,0,250.0,0.0,0.243,0.0,0.0,1.0,0,100.0,221.985,11.099,1,1.0,0,1.0,0,1.0,0,1.0,0,1.0
257,'1',0.0,0.0,24.979,-24.979,1.01,0,25.98,0.0,0.195,0.0,0.0,1.0,0,100.0,80.294,20.65,1,1.0,0,1.0,0,1.0,0,1.0,0,1.0
263,'1',0.0,0.0,21.617,-21.617,1.0207,0,43.45,0.0,0.165,0.0,0.0,1.0,0,100.0,81.747,4.087,1,1.0,0,1.0,0,1.0,0,1.0,0,1.0
267,'99',3.1,50.492,550.0,-550.0,1.0348,0,100.0,0.0,1.0,0.0,0.0,1.0,1,100.0,1500.0,3.0,1,1.0,0,1.0,0,1.0,0,1.0,0,1.0
269,'99',43.244,-9.357,550.0,-550.0,1.0363,0,100.0,0.0,1.0,0.0,0.0,1.0,1,100.0,1500.0,38.686,1,1.0,0,1.0,0,1.0,0,1.0,0,1.0
274,'1',0.0,0.0,18.735,-18.735,1.01,0,44.0,0.0,0.195,0.0,0.0,1.0,0,100.0,70.848,4.75,1,1.0,0,1.0,0,1.0,0,1.0,0,1.0
286,'99',200.346,-168.069,550.0,-550.0,1.02,0,100.0,0.0,1.0,0.0,0.0,1.0,1,100.0,1500.0,75.0,1,1.0,0,1.0,0,1.0,0,1.0,0,1.0
293,'1',4.75,26.764,26.764,-26.764,1.03,0,73.0,0.0,0.132,0.0,0.0,1.0,1,100.0,119.072,4.75,1,1.0,0,1.0,0,1.0,0,1.0,0,1.0
302,'1',0.0,0.0,120.323,-120.323,1.0238,0,6.25,0.0,0.15,0.0,0.0,1.025,0,100.0,386.765,5.142,1,1.0,0,1.0,0,1.0,0,1.0,0,1.0
305,'1',271.0,-3.663,123.982,-123.982,1.0194,0,100.0,0.0,1.0,0.0,0.0,1.0,1,100.0,551.598,27.58,1,1.0,0,1.0,0,1.0,0,1.0,0,1.0
314,'1',0.0,0.0,307.92,-307.92,1.01,0,370.6,0.0,0.2489,0.0,0.0,1.0,0,100.0,989.779,251.2,1,1.0,0,1.0,0,1.0,0,1.0,0,1.0
322,'99',41.422,-14.14,550.0,-550.0,1.0,0,100.0,0.0,1.0,0.0,0.0,1.0,1,100.0,1500.0,37.055,1,1.0,0,1.0,0,1.0,0,1.0,0,1.0
332,'1',0.0,0.0,48.037,-48.037,1.0229,0,100.0,0.0,1.0,0.0,0.0,1.0,0,100.0,181.661,4.5,1,1.0,0,1.0,0,1.0,0,1.0,0,1.0
333,'1',3.1,0.0,7.206,-7.206,1.03,0,100.0,0.0,1.0,0.0,0.0,1.0,0,100.0,23.162,3.0,1,1.0,0,1.0,0,1.0,0,1.0,0,1.0
336,'1',0.0,0.0,86.467,-86.467,1.0314,0,234.0,0.0,0.1796,0.0,0.0,1.0,0,100.0,326.99,94.05,1,1.0,0,1.0,0,1.0,0,1.0,0,1.0
339,'1',1.95,-92.925,117.578,-117.578,1.0017,0,100.0,0.0,1.0,0.0,0.0,1.0,1,100.0,523.102,1.95,1,1.0,0,1.0,0,1.0,0,1.0,0,1.0
350,'1',0.0,0.0,66.292,-66.292,1.04,0,43.45,0.0,0.165,0.0,0.0,1.0,0,100.0,213.088,25.933,1,1.0,0,1.0,0,1.0,0,1.0,0,1.0
351,'99',152.212,-140.63,550.0,-550.0,1.02,0,100.0,0.0,1.0,0.0,0.0,1.0,1,100.0,1500.0,75.0,1,1.0,0,1.0,0,1.0,0,1.0,0,1.0
352,'1',0.0,0.0,215.089,-215.089,1.01,0,100.0,0.0,1.0,0.0,0.0,1.0,0,100.0,691.382,34.569,1,1.0,0,1.0,0,1.0,0,1.0,0,1.0
353,'1',0.0,0.0,101.107,-101.107,1.0314,0,213.4,0.0,0.1796,0.0,0.0,1.0,0,100.0,325.0,94.05,1,1.0,0,1.0,0,1.0,0,1.0,0,1.0
356,'1',3.1,0.0,128.1,-128.1,1.0033,0,100.0,0.0,1.0,0.0,0.0,1.0,0,100.0,411.765,3.0,1,1.0,0,1.0,0,1.0,0,1.0,0,1.0
358,'2',1.083,-123.525,123.525,-123.525,1.0029,0,100.0,0.0,1.0,0.0,0.0,1.0,1,100.0,549.562,1.083,1,1.0,0,1.0,0,1.0,0,1.0,0,1.0
359,'1',0.0,0.0,243.07,-243.07,1.0245,0,595.0,0.0,0.225,0.0026,0.1541,1.0,0,100.0,781.324,124.8,1,1.0,0,1.0,0,1.0,0,1.0,0,1.0
368,'1',56.8,-8.025,25.986,-25.986,1.0184,0,71.18,0.0,0.144,0.0,0.0,1.0,1,100.0,115.612,5.781,1,1.0,0,1.0,0,1.0,0,1.0,0,1.0
371,'1',0.0,0.0,122.152,-122.152,1.0257,0,64.7,0.0,0.096,0.0,0.0,1.0,0,100.0,461.938,14.58,1,1.0,0,1.0,0,1.0,0,1.0,0,1.0
371,'2',0.0,0.0,118.95,-118.95,1.0257,0,64.7,0.0,0.096,0.0,0.0,1.0,0,100.0,382.353,19.118,1,1.0,0,1.0,0,1.0,0,1.0,0,1.0
371,'3',0.0,0.0,19.627,-19.627,1.0257,0,49.4,0.0,0.101,0.0,0.0,1.0,0,100.0,63.088,13.46,1,1.0,0,1.0,0,1.0,0,1.0,0,1.0
372,'1',0.0,0.0,86.467,-86.467,1.01,0,213.4,0.0,0.1796,0.0,0.0,1.0,0,100.0,277.941,13.897,1,1.0,0,1.0,0,1.0,0,1.0,0,1.0
375,'1',0.0,0.0,21.617,-21.617,1.03,0,43.45,0.0,0.165,0.0,0.0,1.0,0,100.0,69.485,4.75,1,1.0,0,1.0,0,1.0,0,1.0,0,1.0
379,'1',553.35,70.769,253.158,-253.158,1.01,0,382.6,0.0,0.193,0.0,0.0,1.0,1,100.0,1126.297,125.708,1,1.0,0,1.0,0,1.0,0,1.0,0,1.0
382,'1',0.0,0.0,86.467,-86.467,1.0314,0,234.0,0.0,0.1796,0.0,0.0,1.0,0,100.0,277.941,94.05,1,1.0,0,1.0,0,1.0,0,1.0,0,1.0
388,'99',31.976,-96.762,550.0,-550.0,1.0347,0,100.0,0.0,1.0,0.0,0.0,1.0,1,100.0,1500.0,28.605,1,1.0,0,1.0,0,1.0,0,1.0,0,1.0
392,'1',2.025,-93.645,116.663,-116.663,1.01,0,100.0,0.0,1.0,0.0,0.0,1.0,1,100.0,519.031,2.025,1,1.0,0,1.0,0,1.0,0,1.0,0,1.0
398,'1',3.1,-0.243,124.44,-124.44,1.0348,0,19.0,0.0,0.181,0.0,0.0,1.045,1,100.0,553.633,3.0,1,1.0,0,1.0,0,1.0,0,1.0,0,1.0
401,'1',0.0,0.0,312.244,-312.244,1.0314,0,369.0,0.0,0.2489,0.0,0.0,1.0,0,100.0,1003.676,127.708,1,1.0,0,1.0,0,1.0,0,1.0,0,1.0
412,'99',28.949,-59.93,550.0,-550.0,1.0,0,100.0,0.0,1.0,0.0,0.0,1.0,1,100.0,1500.0,25.897,1,1.0,0,1.0,0,1.0,0,1.0,0,1.0
414,'99',20.741,3.638,550.0,-550.0,1.0277,0,100.0,0.0,1.0,0.0,0.0,1.0,1,100.0,1500.0,18.554,1,1.0,0,1.0,0,1.0,0,1.0,0,1.0
421,'1',3.1,-217.691,605.021,-605.021,1.0252,0,100.0,0.0,1.0,0.0,0.0,1.0,1,100.0,40.0,3.0,1,1.0,0,1.0,0,1.0,0,1.0,0,1.0
431,'99',3.0,89.362,550.0,-550.0,1.0431,0,100.0,0.0,1.0,0.0,0.0,1.0,1,100.0,1500.0,3.0,1,1.0,0,1.0,0,1.0,0,1.0,0,1.0
433,'99',3.0,37.222,550.0,-550.0,1.0389,0,100.0,0.0,1.0,0.0,0.0,1.0,1,100.0,1500.0,3.0,1,1.0,0,1.0,0,1.0,0,1.0,0,1.0
442,'99',10.466,53.85,550.0,-550.0,1.0361,0,100.0,0.0,1.0,0.0,0.0,1.0,1,100.0,1500.0,9.363,1,1.0,0,1.0,0,1.0,0,1.0,0,1.0
456,'99',76.646,248.85,550.0,-550.0,1.0461,0,100.0,0.0,1.0,0.0,0.0,1.0,1,100.0,1500.0,75.0,1,1.0,0,1.0,0,1.0,0,1.0,0,1.0
468,'1',28.5,11.908,28.431,-28.431,1.03,0,58.71,0.0,0.284,0.0,0.0,1.0,1,100.0,126.491,28.5,1,1.0,0,1.0,0,1.0,0,1.0,0,1.0
474,'1',0.0,0.0,133.133,-133.133,1.03,0,52.94,0.0,0.2,0.0,0.0,1.0,0,100.0,427.941,21.397,1,1.0,0,1.0,0,1.0,0,1.0,0,1.0
474,'2',0.0,0.0,19.215,-19.215,1.03,0,52.94,0.0,0.2,0.0,0.0,1.0,0,100.0,61.765,14.25,1,1.0,0,1.0,0,1.0,0,1.0,0,1.0
506,'1',0.0,0.0,119.408,-119.408,1.0,0,250.0,0.0,0.3,0.0,0.0,0.9706,0,100.0,383.824,19.191,1,1.0,0,1.0,0,1.0,0,1.0,0,1.0
510,'99',3.1,-61.406,550.0,-550.0,1.0272,0,100.0,0.0,1.0,0.0,0.0,1.0,1,100.0,1500.0,3.0,1,1.0,0,1.0,0,1.0,0,1.0,0,1.0
543,'99',145.695,-27.306,550.0,-550.0,1.0191,0,100.0,0.0,1.0,0.0,0.0,1.0,1,100.0,1500.0,75.0,1,1.0,0,1.0,0,1.0,0,1.0,0,1.0
563,'1',0.0,0.0,384.3,-384.3,1.0146,0,100.0,0.0,1.0,0.0,0.0,1.0,0,100.0,1235.294,61.765,1,1.0,0,1.0,0,1.0,0,1.0,0,1.0
566,'1',3.1,-164.072,368.928,-368.928,1.0124,0,841.0,0.0,0.25,0.0,0.0,0.0,1,100.0,1395.156,3.0,1,1.0,0,1.0,0,1.0,0,1.0,0,1.0
569,'99',5.132,-30.299,550.0,-550.0,1.0293,0,100.0,0.0,1.0,0.0,0.0,1.0,1,100.0,1500.0,4.591,1,1.0,0,1.0,0,1.0,0,1.0,0,1.0
579,'1',254.1,-65.808,116.251,-116.251,1.0135,0,100.0,0.0,1.0,0.0,0.0,1.0,1,100.0,517.199,25.86,1,1.0,0,1.0,0,1.0,0,1.0,0,1.0
582,'1',3.1,-140.442,320.404,-320.404,1.0,0,659.0,0.0117,0.28,0.0,0.0,0.0,1,100.0,1425.478,3.0,1,1.0,0,1.0,0,1.0,0,1.0,0,1.0
584,'99',3.1,-24.181,24.181,-24.181,1.01,0,100.0,0.0,1.0,0.0,0.0,1.0,1,100.0,40.0,3.0,1,1.0,0,1.0,0,1.0,0,1.0,0,1.0
588,'1',0.0,0.0,22.578,-22.578,1.04,0,100.0,0.0,1.0,0.0,0.0,1.0,0,100.0,72.574,3.629,1,1.0,0,1.0,0,1.0,0,1.0,0,1.0
609,'99',3.1,-10.492,550.0,-550.0,1.017,0,100.0,0.0,1.0,0.0,0.0,1.0,1,100.0,1500.0,3.0,1,1.0,0,1.0,0,1.0,0,1.0,0,1.0
614,'1',3.1,-139.907,270.451,-270.451,1.03,0,100.0,0.0,1.0,0.0,0.0,1.0,1,100.0,1203.236,3.0,1,1.0,0,1.0,0,1.0,0,1.0,0,1.0
626,'1',0.0,0.0,319.141,-319.141,1.0,0,659.0,0.0117,0.28,0.0,0.0,0.0,0,100.0,1025.846,51.292,1,1.0,0,1.0,0,1.0,0,1.0,0,1.0
629,'1',0.0,0.0,174.857,-174.857,1.03,0,100.0,0.0,1.0,0.0,0.0,1.0,0,100.0,562.059,28.103,1,1.0,0,1.0,0,1.0,0,1.0,0,1.0
630,'1',0.0,0.0,29.303,-29.303,1.03,0,55.0,0.0,0.138,0.0,0.0,0.0,0,100.0,94.191,4.71,1,1.0,0,1.0,0,1.0,0,1.0,0,1.0
630,'2',0.0,0.0,26.421,-26.421,1.03,0,55.0,0.0,0.138,0.0,0.0,0.0,0,100.0,84.926,4.246,1,1.0,0,1.0,0,1.0,0,1.0,0,1.0
630,'3',39.75,-26.421,26.421,-26.421,1.03,0,55.0,0.0,0.138,0.0,0.0,0.0,1,100.0,117.545,3.375,1,1.0,0,1.0,0,1.0,0,1.0,0,1.0
630,'4',3.1,-30.744,30.744,-30.744,1.03,0,55.0,0.0,0.138,0.0,0.0,0.0,1,100.0,136.78,3.0,1,1.0,0,1.0,0,1.0,0,1.0,0,1.0
630,'5',0.0,0.0,25.94,-25.94,1.03,0,55.0,0.0,0.138,0.0,0.0,0.0,0,100.0,83.382,4.169,1,1.0,0,1.0,0,1.0,0,1.0,0,1.0
630,'6',0.0,0.0,25.94,-25.94,1.03,0,55.0,0.0,0.138,0.0,0.0,0.0,0,100.0,83.382,4.169,1,1.0,0,1.0,0,1.0,0,1.0,0,1.0
634,'2',3.1,0.0,7.206,-7.206,1.03,0,19.0,0.0,0.155,0.0,0.15,1.0,0,100.0,23.162,3.0,1,1.0,0,1.0,0,1.0,0,1.0,0,1.0
638,'1',507.929,-97.723,293.99,-293.99,1.0185,0,718.0,0.0,0.308,0.0,0.0,0.0,1,100.0,1307.958,65.398,1,1.0,0,1.0,0,1.0,0,1.0,0,1.0
652,'1',0.0,0.0,22.578,-22.578,1.003,0,55.6,0.0,0.16,0.0,0.0,0.0,0,100.0,72.574,3.629,1,1.0,0,1.0,0,1.0,0,1.0,0,1.0
652,'2',0.0,0.0,22.578,-22.578,1.003,0,55.6,0.0,0.16,0.0,0.0,0.0,0,100.0,72.574,3.629,1,1.0,0,1.0,0,1.0,0,1.0,0,1.0
652,'3',3.1,0.0,23.538,-23.538,1.003,0,55.6,0.0,0.16,0.0,0.0,0.0,0,100.0,75.662,3.0,1,1.0,0,1.0,0,1.0,0,1.0,0,1.0
652,'4',290.0,-115.052,132.675,-132.675,1.003,0,55.6,0.0,0.16,0.0,0.0,0.0,1,100.0,590.271,29.514,1,1.0,0,1.0,0,1.0,0,1.0,0,1.0
652,'5',0.0,0.0,134.048,-134.048,1.003,0,195.6,0.0,0.192,0.0,0.0,0.0,0,100.0,430.882,21.544,1,1.0,0,1.0,0,1.0,0,1.0,0,1.0
652,'6',3.1,0.0,9.887,-9.887,1.003,0,195.6,0.0,0.192,0.0,0.0,0.0,0,100.0,31.779,3.0,1,1.0,0,1.0,0,1.0,0,1.0,0,1.0
664,'99',12.972,-48.548,550.0,-550.0,1.0247,0,100.0,0.0,1.0,0.0,0.0,1.0,1,100.0,1500.0,11.604,1,1.0,0,1.0,0,1.0,0,1.0,0,1.0
669,'1',3.1,0.0,286.784,-286.784,1.0,0,704.0,0.0091,0.26,0.0,0.0,0.0,0,100.0,921.838,3.0,1,1.0,0,1.0,0,1.0,0,1.0,0,1.0
682,'97',3.1,-3.66,3.66,-3.66,1.01,0,100.0,0.0,0.1,0.0,0.0,1.0,1,100.0,40.0,3.0,1,1.0,0,1.0,0,1.0,0,1.0,0,1.0
686,'1',0.0,0.0,364.605,-364.605,1.0124,0,841.0,0.0,0.25,0.0,0.0,0.0,0,100.0,1171.985,58.599,1,1.0,0,1.0,0,1.0,0,1.0,0,1.0
696,'99',24.914,-197.753,550.0,-550.0,1.0119,0,100.0,0.0,1.0,0.0,0.0,1.0,1,100.0,1500.0,22.288,1,1.0,0,1.0,0,1.0,0,1.0,0,1.0
698,'97',3.1,-3.66,3.66,-3.66,1.01,0,100.0,0.0,0.1,0.0,0.0,1.0,1,100.0,40.0,3.0,1,1.0,0,1.0,0,1.0,0,1.0,0,1.0
702,'1',3.1,0.0,443.386,-443.386,1.0124,0,1043.0,0.0,0.23,0.0,0.0,0.0,0,100.0,1425.221,3.0,1,1.0,0,1.0,0,1.0,0,1.0,0,1.0
715,'1',0.0,0.0,129.015,-129.015,1.03,0,100.0,0.0,1.0,0.0,0.0,1.0,0,100.0,414.706,20.735,1,1.0,0,1.0,0,1.0,0,1.0,0,1.0
719,'1',3.1,0.0,30.744,-30.744,1.0186,0,47.62,0.0,0.258,0.0,0.175,1.0,0,100.0,98.824,3.0,1,1.0,0,1.0,0,1.0,0,1.0,0,1.0
722,'1',0.0,0.0,31.224,-31.224,1.015,0,100.0,0.0,1.0,0.0,0.0,1.0,0,100.0,100.368,5.018,1,1.0,0,1.0,0,1.0,0,1.0,0,1.0
728,'1',0.0,0.0,122.015,-122.015,1.0,0,194.91,0.0,0.225,0.0,0.0,1.0,0,100.0,392.206,19.61,1,1.0,0,1.0,0,1.0,0,1.0,0,1.0
730,'1',0.0,0.0,110.967,-110.967,1.0,0,194.45,0.0,0.225,0.0,0.0,1.0,0,100.0,419.637,20.982,1,1.0,0,1.0,0,1.0,0,1.0,0,1.0
732,'1',3.1,-12.115,111.218,-111.218,1.0,0,196.98,0.0,0.225,0.0,0.0,1.0,1,100.0,494.81,3.0,1,1.0,0,1.0,0,1.0,0,1.0,0,1.0
735,'1',0.0,0.0,30.264,-30.264,1.03,0,100.0,0.0,1.0,0.0,0.0,1.0,0,100.0,97.279,4.864,1,1.0,0,1.0,0,1.0,0,1.0,0,1.0
739,'1',3.1,0.0,12.009,-12.009,1.0162,0,100.0,0.0,1.0,0.0,0.0,1.0,0,100.0,38.603,3.0,1,1.0,0,1.0,0,1.0,0,1.0,0,1.0
742,'2',0.0,0.0,48.037,-48.037,1.0042,0,120.0,0.0,0.1187,0.0,0.0,1.0,0,100.0,154.412,2.85,1,1.0,0,1.0,0,1.0,0,1.0,0,1.0
748,'1',0.0,0.0,122.015,-122.015,1.0,0,195.49,0.0,0.225,0.0,0.0,1.0,0,100.0,392.206,19.61,1,1.0,0,1.0,0,1.0,0,1.0,0,1.0
765,'1',0.0,0.0,41.793,-41.793,1.03,0,100.0,0.0,1.0,0.0,0.0,1.0,0,100.0,134.338,6.717,1,1.0,0,1.0,0,1.0,0,1.0,0,1.0
770,'2',3.1,0.0,17.808,-17.808,1.0,0,100.0,0.0,1.0,0.0,0.0,1.0,0,100.0,57.243,3.0,1,1.0,0,1.0,0,1.0,0,1.0,0,1.0
770,'3',3.1,0.0,15.172,-15.172,1.0,0,100.0,0.0,1.0,0.0,0.0,1.0,0,100.0,48.768,3.0,1,1.0,0,1.0,0,1.0,0,1.0,0,1.0
774,'99',12.02,-62.225,550.0,-550.0,1.0184,0,100.0,0.0,1.0,0.0,0.0,1.0,1,100.0,1500.0,10.752,1,1.0,0,1.0,0,1.0,0,1.0,0,1.0
775,'1',3.1,0.0,111.384,-111.384,1.0,0,194.87,0.0,0.2436,0.0,0.0,1.0,0,100.0,358.033,3.0,1,1.0,0,1.0,0,1.0,0,1.0,0,1.0
783,'1',3.1,-30.828,111.052,-111.052,1.0,0,194.6,0.0,0.225,0.0,0.0,1.0,1,100.0,419.961,3.0,1,1.0,0,1.0,0,1.0,0,1.0,0,1.0
788,'99',3.1,-40.182,550.0,-550.0,1.0,0,100.0,0.0,1.0,0.0,0.0,1.0,1,100.0,1500.0,3.0,1,1.0,0,1.0,0,1.0,0,1.0,0,1.0
789,'99',3.1,-40.182,550.0,-550.0,1.0,0,100.0,0.0,1.0,0.0,0.0,1.0,1,100.0,1500.0,3.0,1,1.0,0,1.0,0,1.0,0,1.0,0,1.0
791,'1',3.1,-26.176,111.052,-111.052,1.0,0,194.3,0.0,0.225,0.0,0.0,1.0,1,100.0,494.072,3.0,1,1.0,0,1.0,0,1.0,0,1.0,0,1.0
792,'99',563.027,-65.668,550.0,-550.0,1.0025,0,100.0,0.0,1.0,0.0,0.0,1.0,1,100.0,1740.687,87.034,1,1.0,0,1.0,0,1.0,0,1.0,0,1.0
800,'1',0.0,0.0,31.224,-31.224,1.0025,0,100.0,0.0,1.0,0.0,0.0,1.0,0,100.0,100.368,5.018,1,1.0,0,1.0,0,1.0,0,1.0,0,1.0
801,'1',3.1,0.0,57.645,-57.645,1.0073,0,100.0,0.0,1.0,0.0,0.0,1.0,0,100.0,185.294,3.0,1,1.0,0,1.0,0,1.0,0,1.0,0,1.0
809,'99',49.484,-44.621,550.0,-550.0,1.0,0,100.0,0.0,1.0,0.0,0.0,1.0,1,100.0,1500.0,44.267,1,1.0,0,1.0,0,1.0,0,1.0,0,1.0
816,'1',0.0,0.0,127.643,-127.643,1.0054,0,128.0,0.0,0.17,0.0021,0.072,1.0,0,100.0,410.294,20.515,1,1.0,0,1.0,0,1.0,0,1.0,0,1.0
816,'2',3.8,-48.998,48.998,-48.998,1.0054,0,128.0,0.0,0.25,0.0021,0.072,1.0,1,100.0,217.993,3.8,1,1.0,0,1.0,0,1.0,0,1.0,0,1.0
816,'3',0.0,0.0,123.982,-123.982,1.0054,0,128.0,0.0,0.17,0.002,0.0725,1.0,0,100.0,398.529,19.926,1,1.0,0,1.0,0,1.0,0,1.0,0,1.0
816,'4',3.8,-48.998,48.998,-48.998,1.0054,0,128.0,0.0,0.25,0.002,0.0725,1.0,1,100.0,217.993,3.8,1,1.0,0,1.0,0,1.0,0,1.0,0,1.0
819,'1',0.0,0.0,638.226,-638.226,1.0263,0,100.0,0.0,1.0,0.0,0.0,1.0,0,100.0,2219.323,110.966,1,1.0,0,1.0,0,1.0,0,1.0,0,1.0
820,'1',3.1,0.0,112.476,-112.476,1.0,0,196.78,0.0,0.225,0.0,0.0,1.0,0,100.0,361.544,3.0,1,1.0,0,1.0,0,1.0,0,1.0,0,1.0
821,'1',0.0,0.0,111.132,-111.132,1.0,0,196.83,0.0,0.225,0.0,0.0,1.0,0,100.0,357.224,17.861,1,1.0,0,1.0,0,1.0,0,1.0,0,1.0
825,'1',3.1,-30.828,122.015,-122.015,1.0,0,195.2,0.0,0.225,0.0,0.0,1.0,1,100.0,542.846,3.0,1,1.0,0,1.0,0,1.0,0,1.0,0,1.0
829,'1',0.0,0.0,118.492,-118.492,1.03,0,100.0,0.0,1.0,0.0,0.0,1.0,0,100.0,380.882,8.1,1,1.0,0,1.0,0,1.0,0,1.0,0,1.0
836,'1',0.0,0.0,116.663,-116.663,1.0041,0,100.0,0.0,1.0,0.0,0.0,1.0,0,100.0,375.0,18.75,1,1.0,0,1.0,0,1.0,0,1.0,0,1.0
839,'1',3.1,0.0,15.315,-15.315,1.0,0,100.0,0.0,1.0,0.0,0.0,1.0,0,100.0,49.228,3.0,1,1.0,0,1.0,0,1.0,0,1.0,0,1.0
839,'3',3.1,0.0,15.338,-15.338,1.0,0,100.0,0.0,1.0,0.0,0.0,1.0,0,100.0,49.301,3.0,1,1.0,0,1.0,0,1.0,0,1.0,0,1.0
840,'1',3.1,0.0,110.549,-110.549,1.0,0,193.42,0.0,0.2436,0.0,0.0,1.0,0,100.0,418.058,3.0,1,1.0,0,1.0,0,1.0,0,1.0,0,1.0
842,'1',126.71,-41.975,48.518,-48.518,1.03,0,100.0,0.0,1.0,0.0,0.0,1.0,1,100.0,215.856,3.0,1,1.0,0,1.0,0,1.0,0,1.0,0,1.0
850,'99',49.484,-44.621,550.0,-550.0,1.0,0,100.0,0.0,1.0,0.0,0.0,1.0,1,100.0,1500.0,44.267,1,1.0,0,1.0,0,1.0,0,1.0,0,1.0
859,'1',0.0,0.0,31.224,-31.224,1.0156,0,100.0,0.0,1.0,0.0,0.0,1.0,0,100.0,100.368,5.018,1,1.0,0,1.0,0,1.0,0,1.0,0,1.0
862,'1',3.1,-30.828,111.721,-111.721,1.0,0,195.77,0.0,0.26,0.0,0.0,1.0,1,100.0,497.049,3.0,1,1.0,0,1.0,0,1.0,0,1.0,0,1.0
863,'1',3.1,0.0,15.652,-15.652,1.0,0,100.0,0.0,1.0,0.0,0.0,1.0,0,100.0,50.312,3.0,1,1.0,0,1.0,0,1.0,0,1.0,0,1.0
864,'3',3.1,0.0,15.269,-15.269,1.0,0,100.0,0.0,1.0,0.0,0.0,1.0,0,100.0,49.081,3.0,1,1.0,0,1.0,0,1.0,0,1.0,0,1.0
869,'1',234.15,-98.666,107.124,-107.124,1.0141,0,100.0,0.0,1.0,0.0,0.0,1.0,1,100.0,476.593,7.6,1,1.0,0,1.0,0,1.0,0,1.0,0,1.0
873,'1',0.0,0.0,591.096,-591.096,1.01,0,716.2,0.0,0.215,0.0,0.0,1.0,0,100.0,1900.019,524.545,1,1.0,0,1.0,0,1.0,0,1.0,0,1.0
880,'1',0.0,0.0,133.59,-133.59,1.0,0,100.0,0.0,1.0,0.0,0.0,1.0,0,100.0,429.412,3.42,1,1.0,0,1.0,0,1.0,0,1.0,0,1.0
906,'1',0.0,0.0,305.038,-305.038,1.018,0,716.2,0.0,0.215,0.0,0.0,1.0,0,100.0,980.515,209.0,1,1.0,0,1.0,0,1.0,0,1.0,0,1.0
926,'99',357.133,116.692,550.0,-550.0,1.0378,0,100.0,0.0,1.0,0.0,0.0,1.0,1,100.0,1500.0,75.0,1,1.0,0,1.0,0,1.0,0,1.0,0,1.0
938,'1',0.0,0.0,14.411,-14.411,1.04,0,37.5,0.0,0.154,0.0,0.0,1.0,0,100.0,46.324,17.033,1,1.0,0,1.0,0,1.0,0,1.0,0,1.0
938,'2',0.0,0.0,14.411,-14.411,1.04,0,37.5,0.0,0.171,0.0,0.0,1.0,0,100.0,46.324,16.7,1,1.0,0,1.0,0,1.0,0,1.0,0,1.0
938,'6',0.0,0.0,14.411,-14.411,1.04,0,36.0,0.0,0.194,0.0,0.0,1.0,0,100.0,46.324,8.633,1,1.0,0,1.0,0,1.0,0,1.0,0,1.0
961,'99',36.078,-38.885,550.0,-550.0,1.0134,0,100.0,0.0,1.0,0.0,0.0,1.0,1,100.0,1500.0,32.275,1,1.0,0,1.0,0,1.0,0,1.0,0,1.0
965,'99',83.705,-150.946,550.0,-550.0,1.0217,0,100.0,0.0,1.0,0.0,0.0,1.0,1,100.0,1500.0,75.0,1,1.0,0,1.0,0,1.0,0,1.0,0,1.0
987,'1',6.65,-23.779,23.779,-23.779,1.01,0,60.0,0.0,0.17,0.0,0.0,1.0,1,100.0,105.791,6.65,1,1.0,0,1.0,0,1.0,0,1.0,0,1.0
992,'1',0.0,0.0,31.032,-31.032,1.0,0,64.1,0.0,0.31,0.0014,0.0937,1.0,0,100.0,99.75,4.988,1,1.0,0,1.0,0,1.0,0,1.0,0,1.0
992,'8',0.0,0.0,128.1,-128.1,1.0,0,1.5,0.0,0.233,0.0,0.0,1.0,0,100.0,411.765,20.588,1,1.0,0,1.0,0,1.0,0,1.0,0,1.0
992,'9',0.0,0.0,116.663,-116.663,1.0,0,100.0,0.0,1.0,0.0,0.0,1.0,0,100.0,375.0,18.75,1,1.0,0,1.0,0,1.0,0,1.0,0,1.0
992,'A',227.58,-62.618,129.93,-129.93,1.0,0,13.0,0.0,0.26,0.0003,0.02,1.0,1,100.0,578.058,1.9,1,1.0,0,1.0,0,1.0,0,1.0,0,1.0
996,'99',11.483,155.619,550.0,-550.0,1.013,0,100.0,0.0,1.0,0.0,0.0,1.0,1,100.0,1500.0,10.272,1,1.0,0,1.0,0,1.0,0,1.0,0,1.0
1007,'PS',0.0,0.0,0.091,-0.091,1.0,0,100.0,0.0,1.0,0.0,0.0,1.0,0,100.0,0.294,0.1,304,1.0,0,1.0,0,1.0,0,1.0,0,1.0
1048,'1',0.0,0.0,114.375,-114.375,1.0,0,100.0,0.0,1.0,0.0,0.0,1.0,0,100.0,367.647,1.267,1,1.0,0,1.0,0,1.0,0,1.0,0,1.0
1056,'1',103.5,-25.993,81.664,-81.664,1.0,0,246.0,0.0,0.222,0.0,0.0,1.0,1,100.0,363.322,57.0,1,1.0,0,1.0,0,1.0,0,1.0,0,1.0
1061,'99',37.859,-100.433,550.0,-550.0,1.0,0,100.0,0.0,1.0,0.0,0.0,1.0,1,100.0,1500.0,33.868,1,1.0,0,1.0,0,1.0,0,1.0,0,1.0
1065,'PS',0.0,0.0,0.091,-0.091,1.0,0,100.0,0.0,1.0,0.0,0.0,1.0,0,100.0,0.294,0.1,304,1.0,0,1.0,0,1.0,0,1.0,0,1.0
1077,'99',10.266,-265.993,550.0,-550.0,1.0043,0,100.0,0.0,1.0,0.0,0.0,1.0,1,100.0,1500.0,9.184,1,1.0,0,1.0,0,1.0,0,1.0,0,1.0
1086,'PS',0.0,0.0,0.091,-0.091,1.0,0,100.0,0.0,1.0,0.0,0.0,1.0,0,100.0,0.294,0.1,304,1.0,0,1.0,0,1.0,0,1.0,0,1.0
1092,'1',0.0,0.0,126.27,-126.27,1.02,0,225.0,0.0,0.202,0.0,0.0,1.0,0,100.0,405.882,3.6,1,1.0,0,1.0,0,1.0,0,1.0,0,1.0
1092,'2',0.0,0.0,59.534,-59.534,1.02,0,154.0,0.0,0.229,0.0,0.0,1.0,0,100.0,191.368,50.18,1,1.0,0,1.0,0,1.0,0,1.0,0,1.0
1139,'99',35.015,-53.62,550.0,-550.0,1.0,0,100.0,0.0,1.0,0.0,0.0,1.0,1,100.0,1500.0,31.324,1,1.0,0,1.0,0,1.0,0,1.0,0,1.0
1140,'99',17.816,-44.278,550.0,-550.0,1.0,0,100.0,0.0,1.0,0.0,0.0,1.0,1,100.0,1500.0,15.937,1,1.0,0,1.0,0,1.0,0,1.0,0,1.0
1142,'1',0.0,0.0,122.068,-122.068,1.01,0,100.0,0.0,1.0,0.0,0.0,1.0,0,100.0,392.376,19.619,1,1.0,0,1.0,0,1.0,0,1.0,0,1.0
1143,'1',3.1,0.0,122.068,-122.068,1.01,0,100.0,0.0,1.0,0.0,0.0,1.0,0,100.0,543.082,3.0,1,1.0,0,1.0,0,1.0,0,1.0,0,1.0
1144,'1',3.1,0.0,122.068,-122.068,1.01,0,100.0,0.0,1.0,0.0,0.0,1.0,0,100.0,392.376,3.0,1,1.0,0,1.0,0,1.0,0,1.0,0,1.0
1145,'1',3.1,0.0,122.065,-122.065,1.01,0,100.0,0.0,1.0,0.0,0.0,1.0,0,100.0,543.065,3.0,1,1.0,0,1.0,0,1.0,0,1.0,0,1.0
1146,'99',62.055,-19.419,550.0,-550.0,1.0,0,100.0,0.0,1.0,0.0,0.0,1.0,1,100.0,1500.0,55.513,1,1.0,0,1.0,0,1.0,0,1.0,0,1.0
1173,'1',3.1,0.0,7.411,-7.411,1.0,0,100.0,0.0,1.0,0.0,0.0,1.0,0,100.0,32.974,3.0,1,1.0,0,1.0,0,1.0,0,1.0,0,1.0
1175,'1',3.1,0.0,11.58,-11.58,1.01,0,100.0,0.0,1.0,0.0,0.0,1.0,0,100.0,37.224,3.0,1,1.0,0,1.0,0,1.0,0,1.0,0,1.0
1181,'1',31.451,-6.625,13.725,-13.725,1.01,0,100.0,0.0,1.0,0.0,0.0,1.0,1,100.0,61.062,3.053,1,1.0,0,1.0,0,1.0,0,1.0,0,1.0
1183,'1',3.1,0.0,13.725,-13.725,1.01,0,100.0,0.0,1.0,0.0,0.0,1.0,0,100.0,44.118,3.0,1,1.0,0,1.0,0,1.0,0,1.0,0,1.0
1185,'1',0.0,0.0,21.445,-21.445,1.01,0,100.0,0.0,1.0,0.0,0.0,1.0,0,100.0,68.934,3.447,1,1.0,0,1.0,0,1.0,0,1.0,0,1.0
1187,'1',0.0,0.0,21.445,-21.445,1.01,0,100.0,0.0,1.0,0.0,0.0,1.0,0,100.0,68.934,3.447,1,1.0,0,1.0,0,1.0,0,1.0,0,1.0
...
0 / END OF GENERATOR DATA BEGIN BRANCH DATA
1,31,'1',0.0013,0.0099,0.02132,260.0,312.0,390.0,0.0,0.0,0.0,0.0,1,2,0.0,1,1.0,0,1.0,0,1.0,0,1.0
3,7,'1',0.07479,0.29968,0.0,260.0,312.0,390.0,0.0,0.0,0.0,0.0,1,1,0.0,1,1.0,0,1.0,0,1.0,0,1.0
3,10,'1',1.0352,0.9,0.0,260.0,312.0,390.0,0.0,0.0,0.0,0.0,1,2,0.0,1,1.0,0,1.0,0,1.0,0,1.0
3,28,'1',0.03978,0.26486,0.0,260.0,312.0,390.0,0.0,0.0,0.0,0.0,1,2,0.0,1,1.0,0,1.0,0,1.0,0,1.0
3,29,'1',1.0789,0.9,0.0,260.0,312.0,390.0,0.0,0.0,0.0,0.0,1,2,0.0,1,1.0,0,1.0,0,1.0,0,1.0
3,33,'1',0.13857,0.28969,0.0,260.0,312.0,390.0,0.0,0.0,0.0,0.0,1,1,0.0,1,1.0,0,1.0,0,1.0,0,1.0
3,44,'1',0.07496,0.30013,0.0,260.0,312.0,390.0,0.0,0.0,0.0,0.0,1,1,0.0,1,1.0,0,1.0,0,1.0,0,1.0
4,9,'1',0.39394,0.9,0.0,260.0,312.0,390.0,0.0,0.0,0.0,0.0,1,1,0.0,1,1.0,0,1.0,0,1.0,0,1.0
4,15,'1',0.0111,0.16469,0.0,260.0,312.0,390.0,0.0,0.0,0.0,0.0,1,1,0.0,1,1.0,0,1.0,0,1.0,0,1.0
4,33,'1',0.05555,0.36498,0.0,260.0,312.0,390.0,0.0,0.0,0.0,0.0,1,1,0.0,1,1.0,0,1.0,0,1.0,0,1.0
5,9,'1',0.29041,0.5542,0.0,260.0,312.0,390.0,0.0,0.0,0.0,0.0,1,1,0.0,1,1.0,0,1.0,0,1.0,0,1.0
5,47,'1',0.15248,0.33587,0.0,260.0,312.0,390.0,0.0,0.0,0.0,0.0,1,1,0.0,1,1.0,0,1.0,0,1.0,0,1.0
6,16,'1',0.0042,0.0253,0.0485,260.0,312.0,390.0,0.0,0.0,0.0,0.0,1,1,0.0,1,1.0,0,1.0,0,1.0,0,1.0
6,54,'1',0.0046,0.0315,0.059,420.23,504.27,630.34,0.0,0.0,0.0,0.0,1,2,0.0,1,1.0,0,1.0,0,1.0,0,1.0
7,28,'1',-0.0656,0.84873,0.0,260.0,312.0,390.0,0.0,0.0,0.0,0.0,1,2,0.0,1,1.0,0,1.0,0,1.0,0,1.0
7,33,'1',0.15749,0.77703,0.0,260.0,312.0,390.0,0.0,0.0,0.0,0.0,1,1,0.0,1,1.0,0,1.0,0,1.0,0,1.0
7,44,'1',0.0162,0.1815,0.0,260.0,312.0,390.0,0.0,0.0,0.0,0.0,1,1,0.0,1,1.0,0,1.0,0,1.0,0,1.0
8,10,'1',-0.0598,0.2664,0.0,260.0,312.0,390.0,0.0,0.0,0.0,0.0,1,2,0.0,1,1.0,0,1.0,0,1.0,0,1.0
8,29,'1',-0.0578,0.27321,0.0,260.0,312.0,390.0,0.0,0.0,0.0,0.0,1,2,0.0,1,1.0,0,1.0,0,1.0,0,1.0
8,34,'1',0.01979,0.0496,0.0,260.0,312.0,390.0,0.0,0.0,0.0,0.0,1,2,0.0,1,1.0,0,1.0,0,1.0,0,1.0
9,10,'1',0.46671,0.9,0.0,260.0,312.0,390.0,0.0,0.0,0.0,0.0,1,2,0.0,1,1.0,0,1.0,0,1.0,0,1.0
9,15,'1',0.39058,0.9,0.0,260.0,312.0,390.0,0.0,0.0,0.0,0.0,1,2,0.0,1,1.0,0,1.0,0,1.0,0,1.0
9,29,'1',0.50043,0.9,0.0,260.0,312.0,390.0,0.0,0.0,0.0,0.0,1,2,0.0,1,1.0,0,1.0,0,1.0,0,1.0
9,33,'1',0.98041,0.9,0.0,260.0,312.0,390.0,0.0,0.0,0.0,0.0,1,1,0.0,1,1.0,0,1.0,0,1.0,0,1.0
9,34,'1',0.54064,0.64634,0.0,260.0,312.0,390.0,0.0,0.0,0.0,0.0,1,2,0.0,1,1.0,0,1.0,0,1.0,0,1.0
9,47,'1',0.14495,0.27334,0.0,260.0,312.0,390.0,0.0,0.0,0.0,0.0,1,1,0.0,1,1.0,0,1.0,0,1.0,0,1.0
10,28,'1',0.48924,0.9,0.0,260.0,312.0,390.0,0.0,0.0,0.0,0.0,1,1,0.0,1,1.0,0,1.0,0,1.0,0,1.0
10,29,'1',0.0009,0.0003,0.0,260.0,312.0,390.0,0.0,0.0,0.0,0.0,1,2,0.0,1,1.0,0,1.0,0,1.0,0,1.0
10,33,'1',0.95414,0.9,0.0,260.0,312.0,390.0,0.0,0.0,0.0,0.0,1,1,0.0,1,1.0,0,1.0,0,1.0,0,1.0
10,34,'1',0.01526,0.02962,0.0,260.0,312.0,390.0,0.0,0.0,0.0,0.0,1,1,0.0,1,1.0,0,1.0,0,1.0,0,1.0
11,47,'1',0.16551,0.4737,0.0,260.0,312.0,390.0,0.0,0.0,0.0,0.0,1,1,0.0,1,1.0,0,1.0,0,1.0,0,1.0
11,49,'1',0.04304,0.18584,0.0,260.0,312.0,390.0,0.0,0.0,0.0,0.0,1,1,0.0,1,1.0,0,1.0,0,1.0,0,1.0
12,18,'1',0.0136,0.0903,0.1732,260.0,312.0,390.0,0.0,0.0,0.0,0.0,1,1,0.0,1,1.0,0,1.0,0,1.0,0,1.0
12,961,'TL',0.0001,0.01,0.0,122.07,146.49,183.11,0.0,0.0,0.0,0.0,1,1,0.0,8,1.0,0,1.0,0,1.0,0,1.0
13,22,'1',0.0154,0.0991,0.17817,591.0,709.2,886.5,0.0,0.0,0.0,0.0,1,1,0.0,1,1.0,0,1.0,0,1.0,0,1.0
13,31,'1',0.0122,0.0943,0.18743,260.0,312.0,390.0,0.0,0.0,0.0,0.0,1,2,0.0,1,1.0,0,1.0,0,1.0,0,1.0
13,39,'1',0.0065,0.0503,0.10008,260.0,312.0,390.0,0.0,0.0,0.0,0.0,1,1,0.0,1,1.0,0,1.0,0,1.0,0,1.0
13,40,'1',0.0022,0.0262,0.05566,712.6,855.12,1068.9,0.0,0.0,0.0,0.0,1,1,0.0,1,1.0,0,1.0,0,1.0,0,1.0
13,40,'2',0.0027,0.0268,0.05696,707.9,849.48,1061.85,0.0,0.0,0.0,0.0,1,1,0.0,1,1.0,0,1.0,0,1.0,0,1.0
15,33,'1',0.05509,0.36182,0.0,260.0,312.0,390.0,0.0,0.0,0.0,0.0,1,1,0.0,1,1.0,0,1.0,0,1.0,0,1.0
16,1077,'TL',0.0001,0.01,0.0,222.0,244.2,266.4,0.0,0.0,0.0,0.0,1,1,0.0,9,1.0,0,1.0,0,1.0,0,1.0
17,43,'1',0.0123,0.0822,0.15137,357.0,392.7,428.4,0.0,0.0,0.0,0.0,1,2,0.0,1,1.0,0,1.0,0,1.0,0,1.0
17,52,'1',0.0057,0.0382,0.07047,260.0,312.0,390.0,0.0,0.0,0.0,0.0,1,2,0.0,1,1.0,0,1.0,0,1.0,0,1.0
18,35,'1',0.00605,0.03642,0.06956,260.0,312.0,390.0,0.0,0.0,0.0,0.0,1,2,0.0,1,1.0,0,1.0,0,1.0,0,1.0
18,52,'1',0.00203,0.01191,0.02399,260.0,312.0,390.0,0.0,0.0,0.0,0.0,1,2,0.0,1,1.0,0,1.0,0,1.0,0,1.0
19,53,'1',0.00116,0.0314,2.6586,758.15,909.78,1137.22,0.0,0.0,0.0,0.0,1,2,0.0,1,1.0,0,1.0,0,1.0,0,1.0
22,45,'1',0.0106,0.0684,0.13505,260.0,312.0,390.0,0.0,0.0,0.0,0.0,1,2,0.0,1,1.0,0,1.0,0,1.0,0,1.0
22,48,'1',0.0112,0.0727,0.14343,260.0,312.0,390.0,0.0,0.0,0.0,0.0,1,1,0.0,1,1.0,0,1.0,0,1.0,0,1.0
22,50,'1',0.00197,0.01283,0.02477,260.0,312.0,390.0,0.0,0.0,0.0,0.0,1,2,0.0,1,1.0,0,1.0,0,1.0,0,1.0
23,632,'TL',0.0001,0.01,0.0,505.0,555.5,606.0,0.0,0.0,0.0,0.0,1,2,0.0,84,1.0,0,1.0,0,1.0,0,1.0
24,36,'1',0.0045,0.0221,0.00642,260.0,312.0,390.0,0.0,0.0,0.0,0.0,1,1,0.0,1,1.0,0,1.0,0,1.0,0,1.0
26,45,'1',0.0034,0.0221,0.04362,260.0,312.0,390.0,0.0,0.0,0.0,0.0,1,2,0.0,1,1.0,0,1.0,0,1.0,0,1.0
27,49,'1',0.04064,0.1642,0.0,260.0,312.0,390.0,0.0,0.0,0.0,0.0,1,1,0.0,1,1.0,0,1.0,0,1.0,0,1.0
27,666,'TL',0.0001,0.01,0.0,154.56,185.47,231.84,0.0,0.0,0.0,0.0,1,2,0.0,82,1.0,0,1.0,0,1.0,0,1.0
28,29,'1',0.523,0.9,0.0,260.0,312.0,390.0,0.0,0.0,0.0,0.0,1,2,0.0,1,1.0,0,1.0,0,1.0,0,1.0
28,33,'1',0.03257,0.26394,0.0,260.0,312.0,390.0,0.0,0.0,0.0,0.0,1,1,0.0,1,1.0,0,1.0,0,1.0,0,1.0
28,44,'1',-0.0656,0.85005,0.0,260.0,312.0,390.0,0.0,0.0,0.0,0.0,1,1,0.0,1,1.0,0,1.0,0,1.0,0,1.0
29,34,'1',0.01598,0.03011,0.0,260.0,312.0,390.0,0.0,0.0,0.0,0.0,1,1,0.0,1,1.0,0,1.0,0,1.0,0,1.0
30,32,'1',0.01265,0.06079,0.0289,260.0,312.0,390.0,0.0,0.0,0.0,0.0,1,1,0.0,1,1.0,0,1.0,0,1.0,0,1.0
30,41,'1',0.0239,0.1186,0.06562,260.0,312.0,390.0,0.0,0.0,0.0,0.0,1,1,0.0,1,1.0,0,1.0,0,1.0,0,1.0
31,43,'1',0.0001,0.001,0.00208,260.0,312.0,390.0,0.0,0.0,0.0,0.0,1,1,0.0,1,1.0,0,1.0,0,1.0,0,1.0
32,609,'TL',0.0001,0.01,0.0,193.83,232.59,290.74,0.0,0.0,0.0,0.0,1,1,0.0,81,1.0,0,1.0,0,1.0,0,1.0
33,44,'1',0.15786,0.7782,0.0,260.0,312.0,390.0,0.0,0.0,0.0,0.0,1,2,0.0,1,1.0,0,1.0,0,1.0,0,1.0
35,42,'1',0.00421,0.0253,0.04874,260.0,312.0,390.0,0.0,0.0,0.0,0.0,1,2,0.0,1,1.0,0,1.0,0,1.0,0,1.0
37,38,'1',0.0044,0.034,0.06751,260.0,312.0,390.0,0.0,0.0,0.0,0.0,1,1,0.0,1,1.0,0,1.0,0,1.0,0,1.0
37,39,'1',0.0049,0.0375,0.07449,429.88,515.85,644.82,0.0,0.0,0.0,0.0,1,2,0.0,1,1.0,0,1.0,0,1.0,0,1.0
38,40,'1',0.0048,0.0569,0.12161,260.0,312.0,390.0,0.0,0.0,0.0,0.0,1,2,0.0,1,1.0,0,1.0,0,1.0,0,1.0
39,43,'1',0.0091,0.0698,0.13869,453.0,498.3,543.6,0.0,0.0,0.0,0.0,1,2,0.0,1,1.0,0,1.0,0,1.0,0,1.0
42,975,'TL',0.0001,0.01,0.0,137.0,150.7,164.4,0.0,0.0,0.0,0.0,1,2,0.0,10,1.0,0,1.0,0,1.0,0,1.0
46,678,'TL',0.0001,0.01,0.0,172.0,189.2,206.4,0.0,0.0,0.0,0.0,1,2,0.0,83,1.0,0,1.0,0,1.0,0,1.0
50,54,'1',0.01244,0.081,0.1561,260.0,312.0,390.0,0.0,0.0,0.0,0.0,1,2,0.0,1,1.0,0,1.0,0,1.0,0,1.0
51,204,'TL',0.0001,0.01,0.0,83.7,98.6,125.55,0.0,0.0,0.0,0.0,1,2,0.0,3,1.0,0,1.0,0,1.0,0,1.0
56,58,'1',0.00033,0.00185,0.00134,154.0,182.0,182.0,0.0,0.0,0.0,0.0,1,2,0.0,1,1.0,0,1.0,0,1.0,0,1.0
56,63,'1',0.00351,0.01972,0.0013,154.0,182.0,182.0,0.0,0.0,0.0,0.0,1,1,0.0,1,1.0,0,1.0,0,1.0,0,1.0
58,67,'1',0.00251,0.00782,0.0022,154.0,182.0,182.0,0.0,0.0,0.0,0.0,1,1,0.0,1,1.0,0,1.0,0,1.0,0,1.0
59,62,'1',0.004,0.0117,0.0013,139.0,163.0,163.0,0.0,0.0,0.0,0.0,1,2,0.0,1,1.0,0,1.0,0,1.0,0,1.0
59,225,'TL',0.0001,0.01,0.0,83.7,98.6,125.55,0.0,0.0,0.0,0.0,1,1,0.0,1,1.0,0,1.0,0,1.0,0,1.0
62,64,'1',0.0046,0.01505,0.00188,83.0,83.0,83.0,0.0,0.0,0.0,0.0,1,2,0.0,1,1.0,0,1.0,0,1.0,0,1.0
62,69,'1',0.0252,0.0825,0.0103,142.0,167.0,167.0,0.0,0.0,0.0,0.0,1,1,0.0,1,1.0,0,1.0,0,1.0,0,1.0
66,67,'1',0.0087,0.02647,0.00222,144.0,169.0,169.0,0.0,0.0,0.0,0.0,1,2,0.0,1,1.0,0,1.0,0,1.0,0,1.0
66,69,'1',0.0262,0.0857,0.0107,142.0,176.0,176.0,0.0,0.0,0.0,0.0,1,2,0.0,1,1.0,0,1.0,0,1.0,0,1.0
66,241,'TL',0.0001,0.01,0.0,83.7,98.6,125.55,0.0,0.0,0.0,0.0,1,2,0.0,2,1.0,0,1.0,0,1.0,0,1.0
72,95,'1',0.0016,0.0179,0.29195,749.15,898.98,1123.72,0.0,0.0,0.0,0.0,1,2,0.0,1,1.0,0,1.0,0,1.0,0,1.0
72,127,'1',0.0011,0.0122,0.2654,654.13,784.95,981.19,0.0,0.0,0.0,0.0,1,2,0.0,1,1.0,0,1.0,0,1.0,0,1.0
74,103,'1',0.0024,0.0113,0.00294,260.0,312.0,390.0,0.0,0.0,0.0,0.0,1,2,0.0,1,1.0,0,1.0,0,1.0,0,1.0
74,103,'2',-0.0148,0.50095,0.0,260.0,312.0,390.0,0.0,0.0,0.0,0.0,1,2,0.0,1,1.0,0,1.0,0,1.0,0,1.0
74,133,'1',0.0189,0.0877,0.02284,260.0,312.0,390.0,0.0,0.0,0.0,0.0,1,2,0.0,1,1.0,0,1.0,0,1.0,0,1.0
74,146,'1',0.018,0.1264,0.04014,260.0,312.0,390.0,0.0,0.0,0.0,0.0,1,2,0.0,1,1.0,0,1.0,0,1.0,0,1.0
75,87,'1',0.0018,0.0232,0.4064,685.32,822.38,1027.98,0.0,0.0,0.0,0.0,1,1,0.0,1,1.0,0,1.0,0,1.0,0,1.0
75,143,'1',0.0013,0.0192,0.335,2010.0,2211.0,2412.0,0.0,0.0,0.0,0.0,1,2,0.0,1,1.0,0,1.0,0,1.0,0,1.0
76,88,'1',0.0014,0.0157,0.29997,260.0,312.0,390.0,0.0,0.0,0.0,0.0,1,2,0.0,1,1.0,0,1.0,0,1.0,0,1.0
77,98,'1',0.0201,0.0815,0.02096,260.0,312.0,390.0,0.0,0.0,0.0,0.0,1,2,0.0,1,1.0,0,1.0,0,1.0,0,1.0
77,122,'1',0.0035,0.0178,0.0,260.0,312.0,390.0,0.0,0.0,0.0,0.0,1,1,0.0,1,1.0,0,1.0,0,1.0,0,1.0
77,122,'2',0.0229,0.41771,0.0,260.0,312.0,390.0,0.0,0.0,0.0,0.0,1,1,0.0,1,1.0,0,1.0,0,1.0,0,1.0
78,128,'1',0.01346,0.05014,0.0125,260.0,312.0,390.0,0.0,0.0,0.0,0.0,1,1,0.0,1,1.0,0,1.0,0,1.0,0,1.0
78,2440,'TL',0.0001,0.01,0.0,228.0,250.8,273.6,0.0,0.0,0.0,0.0,1,2,0.0,78,1.0,0,1.0,0,1.0,0,1.0
79,124,'1',0.0001,0.001,0.0,260.0,312.0,390.0,0.0,0.0,0.0,0.0,1,2,0.0,1,1.0,0,1.0,0,1.0,0,1.0
81,85,'1',0.031,0.1441,0.0334,260.0,312.0,390.0,0.0,0.0,0.0,0.0,1,1,0.0,1,1.0,0,1.0,0,1.0,0,1.0
81,103,'1',0.0085,0.0394,0.01026,260.0,312.0,390.0,0.0,0.0,0.0,0.0,1,1,0.0,1,1.0,0,1.0,0,1.0,0,1.0
81,147,'1',0.0404,0.1952,0.04559,260.0,312.0,390.0,0.0,0.0,0.0,0.0,1,1,0.0,1,1.0,0,1.0,0,1.0,0,1.0
83,104,'1',0.00065,0.00725,0.138,565.76,678.91,848.64,0.0,0.0,0.0,0.0,1,1,0.0,1,1.0,0,1.0,0,1.0,0,1.0
83,108,'1',0.00065,0.00725,0.138,574.22,689.07,861.33,0.0,0.0,0.0,0.0,1,1,0.0,1,1.0,0,1.0,0,1.0,0,1.0
84,93,'1',0.00224,0.02578,0.26437,1046.0,1466.0,1466.0,0.0,0.0,0.0,0.0,1,1,0.0,1,1.0,0,1.0,0,1.0,0,1.0
84,142,'1',0.00067,0.00772,0.07922,1046.0,1466.0,1466.0,0.0,0.0,0.0,0.0,1,1,0.0,1,1.0,0,1.0,0,1.0,0,1.0
85,90,'1',0.0131,0.0609,0.01586,260.0,312.0,390.0,0.0,0.0,0.0,0.0,1,1,0.0,1,1.0,0,1.0,0,1.0,0,1.0
85,94,'1',0.0056,0.0418,0.01167,260.0,312.0,390.0,0.0,0.0,0.0,0.0,1,2,0.0,1,1.0,0,1.0,0,1.0,0,1.0
85,150,'1',0.0131,0.0609,0.01586,260.0,312.0,390.0,0.0,0.0,0.0,0.0,1,1,0.0,1,1.0,0,1.0,0,1.0,0,1.0
86,94,'1',0.0052,0.0393,0.01144,260.0,312.0,390.0,0.0,0.0,0.0,0.0,1,2,0.0,1,1.0,0,1.0,0,1.0,0,1.0
86,148,'1',0.0027,0.0198,0.0063,260.0,312.0,390.0,0.0,0.0,0.0,0.0,1,2,0.0,1,1.0,0,1.0,0,1.0,0,1.0
88,89,'1',0.0024,0.026,0.43493,260.0,312.0,390.0,0.0,0.0,0.0,0.0,1,2,0.0,1,1.0,0,1.0,0,1.0,0,1.0
88,143,'1',0.0016,0.0182,0.3036,566.0,622.6,679.2,0.0,0.0,0.0,0.0,1,1,0.0,1,1.0,0,1.0,0,1.0,0,1.0
91,139,'1',0.0043,0.0196,0.0051,260.0,312.0,390.0,0.0,0.0,0.0,0.0,1,1,0.0,1,1.0,0,1.0,0,1.0,0,1.0
91,150,'1',0.01,0.0462,0.01204,260.0,312.0,390.0,0.0,0.0,0.0,0.0,1,2,0.0,1,1.0,0,1.0,0,1.0,0,1.0
92,110,'1',0.0001,0.001,0.0,260.0,312.0,390.0,0.0,0.0,0.0,0.0,1,2,0.0,1,1.0,0,1.0,0,1.0,0,1.0
92,133,'1',0.006,0.0478,0.01272,260.0,312.0,390.0,0.0,0.0,0.0,0.0,1,2,0.0,1,1.0,0,1.0,0,1.0,0,1.0
92,2634,'TL',0.0001,0.01,0.0,83.7,98.6,125.55,0.0,0.0,0.0,0.0,1,1,0.0,76,1.0,0,1.0,0,1.0,0,1.0
93,113,'1',0.00258,0.029,0.2982,1046.0,1361.0,1361.0,0.0,0.0,0.0,0.0,1,2,0.0,1,1.0,0,1.0,0,1.0,0,1.0
93,127,'1',0.0007,0.0074,0.07651,1568.0,1760.0,1760.0,0.0,0.0,0.0,0.0,1,1,0.0,1,1.0,0,1.0,0,1.0,0,1.0
95,137,'1',0.0009,0.01,0.19176,964.64,1157.56,1446.96,0.0,0.0,0.0,0.0,1,2,0.0,1,1.0,0,1.0,0,1.0,0,1.0
96,134,'1',0.0063,0.0477,0.01332,260.0,312.0,390.0,0.0,0.0,0.0,0.0,1,2,0.0,1,1.0,0,1.0,0,1.0,0,1.0
96,2557,'TL',0.0001,0.01,0.0,116.0,127.6,139.2,0.0,0.0,0.0,0.0,1,2,0.0,80,1.0,0,1.0,0,1.0,0,1.0
...